propanediol
  ponchem-synthetic

 13 12  0  0  0  0  0  0  0  0999 V2000
    0.0000    0.0000    0.0000 O   0  0  0  0  0  0  0  0  0  0  0  0
    1.4300    0.0000    0.0000 C   0  0  0  0  0  0  0  0  0  0  0  0
    1.9533    1.4377    0.0000 C   0  0  0  0  0  0  0  0  0  0  0  0
    3.4833    1.4377    0.0000 C   0  0  0  0  0  0  0  0  0  0  0  0
    3.9724    2.7815    0.0000 O   0  0  0  0  0  0  0  0  0  0  0  0
   -0.3000    0.9000    0.0000 H   0  0  0  0  0  0  0  0  0  0  0  0
    1.4300   -0.5000    0.8900 H   0  0  0  0  0  0  0  0  0  0  0  0
    1.4300   -0.5000   -0.8900 H   0  0  0  0  0  0  0  0  0  0  0  0
    1.9533    1.9377    0.8900 H   0  0  0  0  0  0  0  0  0  0  0  0
    1.9533    1.9377   -0.8900 H   0  0  0  0  0  0  0  0  0  0  0  0
    3.4833    0.9377    0.8900 H   0  0  0  0  0  0  0  0  0  0  0  0
    3.4833    0.9377   -0.8900 H   0  0  0  0  0  0  0  0  0  0  0  0
    4.2724    3.6815    0.0000 H   0  0  0  0  0  0  0  0  0  0  0  0
  1  2  1  0  0  0  0
  2  3  1  0  0  0  0
  3  4  1  0  0  0  0
  4  5  1  0  0  0  0
  1  6  1  0  0  0  0
  2  7  1  0  0  0  0
  2  8  1  0  0  0  0
  3  9  1  0  0  0  0
  3 10  1  0  0  0  0
  4 11  1  0  0  0  0
  4 12  1  0  0  0  0
  5 13  1  0  0  0  0
M  END
$$$$
