propane
  ponchem-synthetic

 11 10  0  0  0  0  0  0  0  0999 V2000
    0.0000    0.0000    0.0000 C   0  0  0  0  0  0  0  0  0  0  0  0
    1.5300    0.0000    0.0000 C   0  0  0  0  0  0  0  0  0  0  0  0
    2.0400    1.4400    0.0000 C   0  0  0  0  0  0  0  0  0  0  0  0
   -0.3600    1.0200    0.0000 H   0  0  0  0  0  0  0  0  0  0  0  0
   -0.3600   -0.5100    0.8800 H   0  0  0  0  0  0  0  0  0  0  0  0
   -0.3600   -0.5100   -0.8800 H   0  0  0  0  0  0  0  0  0  0  0  0
    1.8900   -0.5100    0.8800 H   0  0  0  0  0  0  0  0  0  0  0  0
    1.8900   -0.5100   -0.8800 H   0  0  0  0  0  0  0  0  0  0  0  0
    3.1300    1.4400    0.0000 H   0  0  0  0  0  0  0  0  0  0  0  0
    1.6800    1.9500    0.8800 H   0  0  0  0  0  0  0  0  0  0  0  0
    1.6800    1.9500   -0.8800 H   0  0  0  0  0  0  0  0  0  0  0  0
  1  2  1  0  0  0  0
  2  3  1  0  0  0  0
  1  4  1  0  0  0  0
  1  5  1  0  0  0  0
  1  6  1  0  0  0  0
  2  7  1  0  0  0  0
  2  8  1  0  0  0  0
  3  9  1  0  0  0  0
  3 10  1  0  0  0  0
  3 11  1  0  0  0  0
M  END
$$$$
