methanol
  ponchem-synthetic

  6  5  0  0  0  0  0  0  0  0999 V2000
    0.0000    0.0000    0.0000 C   0  0  0  0  0  0  0  0  0  0  0  0
    1.4300    0.0000    0.0000 O   0  0  0  0  0  0  0  0  0  0  0  0
   -0.3600    0.9400    0.0000 H   0  0  0  0  0  0  0  0  0  0  0  0
   -0.3600   -0.4700    0.8200 H   0  0  0  0  0  0  0  0  0  0  0  0
   -0.3600   -0.4700   -0.8200 H   0  0  0  0  0  0  0  0  0  0  0  0
    1.7500    0.9000    0.0000 H   0  0  0  0  0  0  0  0  0  0  0  0
  1  2  1  0  0  0  0
  1  3  1  0  0  0  0
  1  4  1  0  0  0  0
  1  5  1  0  0  0  0
  2  6  1  0  0  0  0
M  END
$$$$
