ethanolamine
  ponchem-synthetic

 11 10  0  0  0  0  0  0  0  0999 V2000
    0.0000    0.0000    0.0000 N   0  0  0  0  0  0  0  0  0  0  0  0
    1.4700    0.0000    0.0000 C   0  0  0  0  0  0  0  0  0  0  0  0
    1.9900    1.4400    0.0000 C   0  0  0  0  0  0  0  0  0  0  0  0
    3.4200    1.4400    0.0000 O   0  0  0  0  0  0  0  0  0  0  0  0
   -0.3500    0.9500    0.0000 H   0  0  0  0  0  0  0  0  0  0  0  0
   -0.3500   -0.4800    0.8200 H   0  0  0  0  0  0  0  0  0  0  0  0
    1.8300   -0.5100    0.8900 H   0  0  0  0  0  0  0  0  0  0  0  0
    1.8300   -0.5100   -0.8900 H   0  0  0  0  0  0  0  0  0  0  0  0
    1.6300    1.9500    0.8900 H   0  0  0  0  0  0  0  0  0  0  0  0
    1.6300    1.9500   -0.8900 H   0  0  0  0  0  0  0  0  0  0  0  0
    3.7400    2.3300    0.0000 H   0  0  0  0  0  0  0  0  0  0  0  0
  1  2  1  0  0  0  0
  2  3  1  0  0  0  0
  3  4  1  0  0  0  0
  1  5  1  0  0  0  0
  1  6  1  0  0  0  0
  2  7  1  0  0  0  0
  2  8  1  0  0  0  0
  3  9  1  0  0  0  0
  3 10  1  0  0  0  0
  4 11  1  0  0  0  0
M  END
$$$$
