AJOENE
     RDKit          3D

 13 12  0  0  1  0  0  0  0  0999 V2000
   -2.7841    0.3822   -0.3391 S   0  0  0  0  0  0  0  0  0  0  0  0
    2.1882    1.8355   -0.1216 S   0  0  0  0  0  0  0  0  0  0  0  0
    3.6778    0.7486   -1.0297 S   0  0  0  0  0  0  0  0  0  0  0  0
   -3.3846    1.5359    0.4027 O   0  0  0  0  0  0  0  0  0  0  0  0
   -1.3250   -0.1592    0.6004 C   0  0  0  0  0  0  0  0  0  0  0  0
   -3.7785   -1.0831    0.0268 C   0  0  0  0  0  0  0  0  0  0  0  0
   -0.2424    0.8677    0.5137 C   0  0  0  0  0  0  0  0  0  0  0  0
   -5.1191   -0.9764   -0.6220 C   0  0  0  0  0  0  0  0  0  0  0  0
    0.9605    0.6239   -0.0239 C   0  0  0  0  0  0  0  0  0  0  0  0
   -6.2750   -0.9730    0.0516 C   0  0  0  0  0  0  0  0  0  0  0  0
    4.5559    0.0627    0.3959 C   0  0  0  0  0  0  0  0  0  0  0  0
    5.7028   -0.7798   -0.0618 C   0  0  0  0  0  0  0  0  0  0  0  0
    5.8233   -2.0850    0.2069 C   0  0  0  0  0  0  0  0  0  0  0  0
  1  4  2  0
  1  5  1  1
  1  6  1  0
  2  3  1  0
  2  9  1  0
  3 11  1  0
  5  7  1  0
  6  8  1  0
  7  9  2  0
  8 10  2  0
 11 12  1  0
 12 13  2  0
M  END
>  <KEY>
AJOENE

>  <NAME>
Ajoene

>  <SOURCE>
pubchem-3d:5386591

>  <SMILES>
C=CCSS/C=C/C[S@](=O)CC=C

>  <FORMULA>
C9H14OS3

>  <MW>
234.41

>  <HEAVY_ATOMS>
13

>  <ROTATABLE_BONDS>
8

$$$$
