ALANTOLACTONE
     RDKit          3D

 17 19  0  0  1  0  0  0  0  0999 V2000
   -1.9540    1.3043   -0.4309 O   0  0  0  0  0  0  0  0  0  0  0  0
   -3.5696    0.1497   -1.5925 O   0  0  0  0  0  0  0  0  0  0  0  0
    1.1166    0.9304   -0.0018 C   0  0  1  0  0  0  0  0  0  0  0  0
    0.9795   -0.5667    0.2793 C   0  0  0  0  0  0  0  0  0  0  0  0
    0.0884    1.7439    0.8445 C   0  0  0  0  0  0  0  0  0  0  0  0
    2.5286    1.4394    0.3982 C   0  0  0  0  0  0  0  0  0  0  0  0
   -1.3252    1.1682    0.8540 C   0  0  2  0  0  0  0  0  0  0  0  0
    2.1507   -1.4872   -0.0379 C   0  0  2  0  0  0  0  0  0  0  0  0
   -1.3667   -0.3105    1.2083 C   0  0  2  0  0  0  0  0  0  0  0  0
    3.6731    0.5597   -0.1008 C   0  0  0  0  0  0  0  0  0  0  0  0
    3.4951   -0.8758    0.3788 C   0  0  0  0  0  0  0  0  0  0  0  0
   -0.1364   -1.0860    0.8285 C   0  0  0  0  0  0  0  0  0  0  0  0
    0.8778    1.2148   -1.5020 C   0  0  0  0  0  0  0  0  0  0  0  0
   -2.5586   -0.7253    0.4185 C   0  0  0  0  0  0  0  0  0  0  0  0
    2.1575   -1.9406   -1.5008 C   0  0  0  0  0  0  0  0  0  0  0  0
   -2.7944    0.2545   -0.6597 C   0  0  0  0  0  0  0  0  0  0  0  0
   -3.3624   -1.7727    0.6164 C   0  0  0  0  0  0  0  0  0  0  0  0
  1  7  1  0
  1 16  1  0
  2 16  2  0
  3  4  1  0
  3  5  1  0
  3  6  1  0
  3 13  1  6
  4  8  1  0
  4 12  2  0
  7  5  1  6
  6 10  1  0
  7  9  1  0
  8 11  1  0
  8 15  1  6
  9 12  1  6
  9 14  1  0
 10 11  1  0
 14 16  1  0
 14 17  2  0
M  END
>  <KEY>
ALANTOLACTONE

>  <NAME>
Alantolactone

>  <SOURCE>
pubchem-3d:72724

>  <SMILES>
C=C1C(=O)O[C@@H]2C[C@@]3(C)CCC[C@H](C)C3=C[C@H]12

>  <FORMULA>
C15H20O2

>  <MW>
232.32

>  <HEAVY_ATOMS>
17

>  <ROTATABLE_BONDS>
0

$$$$
