ALOE_EMODIN
     RDKit          3D

 20 22  0  0  0  0  0  0  0  0999 V2000
    1.5525   -2.9525   -0.0584 O   0  0  0  0  0  0  0  0  0  0  0  0
   -0.9518   -2.4244    0.0443 O   0  0  0  0  0  0  0  0  0  0  0  0
   -0.0347    2.8370   -0.1418 O   0  0  0  0  0  0  0  0  0  0  0  0
   -3.4864   -2.0663    0.1507 O   0  0  0  0  0  0  0  0  0  0  0  0
    5.1655    0.9606    1.0120 O   0  0  0  0  0  0  0  0  0  0  0  0
    0.8793    0.6731   -0.1261 C   0  0  0  0  0  0  0  0  0  0  0  0
    0.6396   -0.7018   -0.0772 C   0  0  0  0  0  0  0  0  0  0  0  0
   -1.8659   -0.2613    0.0257 C   0  0  0  0  0  0  0  0  0  0  0  0
   -1.6262    1.1137   -0.0232 C   0  0  0  0  0  0  0  0  0  0  0  0
   -0.7417   -1.2192    0.0006 C   0  0  0  0  0  0  0  0  0  0  0  0
   -0.2448    1.6310   -0.1010 C   0  0  0  0  0  0  0  0  0  0  0  0
    2.1934    1.1506   -0.1998 C   0  0  0  0  0  0  0  0  0  0  0  0
    1.7140   -1.5991   -0.1019 C   0  0  0  0  0  0  0  0  0  0  0  0
    3.2611    0.2529   -0.2243 C   0  0  0  0  0  0  0  0  0  0  0  0
    3.0220   -1.1191   -0.1755 C   0  0  0  0  0  0  0  0  0  0  0  0
   -3.1800   -0.7387    0.0993 C   0  0  0  0  0  0  0  0  0  0  0  0
   -2.7005    2.0111    0.0014 C   0  0  0  0  0  0  0  0  0  0  0  0
    4.6608    0.7624   -0.3028 C   0  0  0  0  0  0  0  0  0  0  0  0
   -4.2477    0.1591    0.1233 C   0  0  0  0  0  0  0  0  0  0  0  0
   -4.0084    1.5311    0.0746 C   0  0  0  0  0  0  0  0  0  0  0  0
  1 13  1  0
  2 10  2  0
  3 11  2  0
  4 16  1  0
  5 18  1  0
  6  7  1  0
  6 11  1  0
  6 12  2  0
  7 10  1  0
  7 13  2  0
  8  9  1  0
  8 10  1  0
  8 16  2  0
  9 11  1  0
  9 17  2  0
 12 14  1  0
 13 15  1  0
 14 15  2  0
 14 18  1  0
 16 19  1  0
 17 20  1  0
 19 20  2  0
M  END
>  <KEY>
ALOE_EMODIN

>  <NAME>
Aloe-emodin

>  <SOURCE>
pubchem-3d:10207

>  <SMILES>
O=C1c2cccc(O)c2C(=O)c2c(O)cc(CO)cc21

>  <FORMULA>
C15H10O5

>  <MW>
270.24

>  <HEAVY_ATOMS>
20

>  <ROTATABLE_BONDS>
1

$$$$
