ALPHA_HUMULENE
     RDKit          3D

 15 15  0  0  0  0  0  0  0  0999 V2000
   -1.7690    1.4700    0.0780 C   0  0  0  0  0  0  0  0  0  0  0  0
   -0.7610    2.5800   -0.1400 C   0  0  0  0  0  0  0  0  0  0  0  0
    0.5200   -1.4600   -0.7320 C   0  0  0  0  0  0  0  0  0  0  0  0
   -0.4950   -1.9560   -0.0680 C   0  0  0  0  0  0  0  0  0  0  0  0
   -1.8520   -2.0550   -0.7180 C   0  0  0  0  0  0  0  0  0  0  0  0
   -2.6330   -0.7570   -0.4930 C   0  0  0  0  0  0  0  0  0  0  0  0
    1.8730   -1.3280   -0.0810 C   0  0  0  0  0  0  0  0  0  0  0  0
    2.2130    0.1590    0.0830 C   0  0  0  0  0  0  0  0  0  0  0  0
   -2.8150    1.5940    1.1500 C   0  0  0  0  0  0  0  0  0  0  0  0
   -0.3070   -2.4370    1.3480 C   0  0  0  0  0  0  0  0  0  0  0  0
    3.1680    0.3410    1.2630 C   0  0  0  0  0  0  0  0  0  0  0  0
    2.8670    0.6810   -1.1980 C   0  0  0  0  0  0  0  0  0  0  0  0
    0.5690    1.9110   -0.4240 C   0  0  0  0  0  0  0  0  0  0  0  0
    0.9370    0.9150    0.3430 C   0  0  0  0  0  0  0  0  0  0  0  0
   -1.7070    0.4130   -0.6900 C   0  0  0  0  0  0  0  0  0  0  0  0
  1 15  2  0
  2  1  1  0
  3  4  2  0
  4  5  1  0
  4 10  1  0
  6  5  1  0
  7  3  1  0
  8  7  1  0
  9  1  1  0
 11  8  1  0
 12  8  1  0
 13  2  1  0
 14 13  2  0
 14  8  1  0
 15  6  1  0
M  END
>  <KEY>
ALPHA_HUMULENE

>  <NAME>
alpha-Humulene

>  <SOURCE>
rcsb-ccd:V8Z

>  <SMILES>
C/C1=C\CC/C(C)=C/CC(C)(C)/C=C/C1

>  <FORMULA>
C15H24

>  <MW>
204.36

>  <HEAVY_ATOMS>
15

>  <ROTATABLE_BONDS>
0

$$$$
