ALPHA_MANGOSTIN
     RDKit          3D

 30 32  0  0  0  0  0  0  0  0999 V2000
   -5.2560    2.8540    0.8840 C   0  0  0  0  0  0  0  0  0  0  0  0
   -4.5760    2.6260   -0.4420 C   0  0  0  0  0  0  0  0  0  0  0  0
   -5.2020    3.1490   -1.7090 C   0  0  0  0  0  0  0  0  0  0  0  0
   -3.4410    1.9750   -0.4920 C   0  0  0  0  0  0  0  0  0  0  0  0
   -2.8860    1.3300    0.7520 C   0  0  0  0  0  0  0  0  0  0  0  0
   -2.6050   -0.1250    0.4810 C   0  0  0  0  0  0  0  0  0  0  0  0
   -1.3550   -0.5220    0.0010 C   0  0  0  0  0  0  0  0  0  0  0  0
   -0.2860    0.4680   -0.2400 C   0  0  0  0  0  0  0  0  0  0  0  0
   -0.5050    1.6660   -0.2570 O   0  0  0  0  0  0  0  0  0  0  0  0
    1.0640   -0.0830   -0.4590 C   0  0  0  0  0  0  0  0  0  0  0  0
    2.1940    0.7450   -0.4340 C   0  0  0  0  0  0  0  0  0  0  0  0
    2.0600    2.0780   -0.2180 O   0  0  0  0  0  0  0  0  0  0  0  0
    3.4470    0.1930   -0.6300 C   0  0  0  0  0  0  0  0  0  0  0  0
    4.6700    1.0720   -0.6010 C   0  0  0  0  0  0  0  0  0  0  0  0
    5.2010    1.1480    0.8070 C   0  0  0  0  0  0  0  0  0  0  0  0
    6.4610    0.8790    1.0480 C   0  0  0  0  0  0  0  0  0  0  0  0
    6.9520    0.7790    2.4690 C   0  0  0  0  0  0  0  0  0  0  0  0
    7.4190    0.6710   -0.0970 C   0  0  0  0  0  0  0  0  0  0  0  0
    3.5770   -1.1730   -0.8530 C   0  0  0  0  0  0  0  0  0  0  0  0
    4.8110   -1.7080   -1.0400 O   0  0  0  0  0  0  0  0  0  0  0  0
    2.4620   -1.9960   -0.8850 C   0  0  0  0  0  0  0  0  0  0  0  0
    1.1950   -1.4630   -0.6930 C   0  0  0  0  0  0  0  0  0  0  0  0
    0.1130   -2.2660   -0.7390 O   0  0  0  0  0  0  0  0  0  0  0  0
   -1.0860   -1.8750   -0.2600 C   0  0  0  0  0  0  0  0  0  0  0  0
   -2.0790   -2.8190   -0.0230 C   0  0  0  0  0  0  0  0  0  0  0  0
   -3.3150   -2.4220    0.4540 C   0  0  0  0  0  0  0  0  0  0  0  0
   -4.2780   -3.3520    0.6810 O   0  0  0  0  0  0  0  0  0  0  0  0
   -3.5790   -1.0740    0.7110 C   0  0  0  0  0  0  0  0  0  0  0  0
   -4.7990   -0.6980    1.1820 O   0  0  0  0  0  0  0  0  0  0  0  0
   -5.7980   -0.3780    0.2120 C   0  0  0  0  0  0  0  0  0  0  0  0
  1  2  1  0
  2  4  2  3
  3  2  1  0
  4  5  1  0
  5  6  1  0
  6  7  2  0
  7  8  1  0
  7 24  1  0
  8 10  1  0
  9  8  2  0
 10 11  1  0
 10 22  2  0
 11 13  2  0
 12 11  1  0
 13 14  1  0
 13 19  1  0
 14 15  1  0
 15 16  2  3
 16 18  1  0
 16 17  1  0
 19 20  1  0
 21 19  2  0
 22 21  1  0
 23 22  1  0
 24 23  1  0
 25 24  2  0
 26 25  1  0
 27 26  1  0
 28  6  1  0
 28 26  2  0
 29 28  1  0
 30 29  1  0
M  END
>  <KEY>
ALPHA_MANGOSTIN

>  <NAME>
alpha-Mangostin

>  <SOURCE>
rcsb-ccd:MKS

>  <SMILES>
COc1c(O)cc2oc3cc(O)c(CC=C(C)C)c(O)c3c(=O)c2c1CC=C(C)C

>  <FORMULA>
C24H26O6

>  <MW>
410.47

>  <HEAVY_ATOMS>
30

>  <ROTATABLE_BONDS>
5

$$$$
