ANDROGRAPHOLIDE
     RDKit          3D

 25 27  0  0  1  0  0  0  0  0999 V2000
   -5.2540    1.7363    0.7797 O   0  0  0  0  0  0  0  0  0  0  0  0
   -5.7582    0.2452   -1.1093 O   0  0  0  0  0  0  0  0  0  0  0  0
    6.0987    0.3830    0.3395 O   0  0  0  0  0  0  0  0  0  0  0  0
    4.2220    0.5288   -2.0465 O   0  0  0  0  0  0  0  0  0  0  0  0
    5.0864   -1.2113    1.6571 O   0  0  0  0  0  0  0  0  0  0  0  0
   -1.2347    0.3088   -0.1154 C   0  0  2  0  0  0  0  0  0  0  0  0
   -2.3530   -0.7179    0.3339 C   0  0  1  0  0  0  0  0  0  0  0  0
   -3.8461   -0.2218    0.2456 C   0  0  1  0  0  0  0  0  0  0  0  0
    0.1595   -0.2838    0.3570 C   0  0  1  0  0  0  0  0  0  0  0  0
   -1.4957    1.6678    0.5842 C   0  0  0  0  0  0  0  0  0  0  0  0
   -3.9489    1.1765    0.9225 C   0  0  1  0  0  0  0  0  0  0  0  0
   -2.1054   -2.1164   -0.2796 C   0  0  0  0  0  0  0  0  0  0  0  0
   -2.9207    2.1828    0.4165 C   0  0  0  0  0  0  0  0  0  0  0  0
   -1.1917    0.5452   -1.6465 C   0  0  0  0  0  0  0  0  0  0  0  0
   -0.7218   -2.6582    0.0878 C   0  0  0  0  0  0  0  0  0  0  0  0
    0.3695   -1.6725   -0.2451 C   0  0  0  0  0  0  0  0  0  0  0  0
   -4.4238   -0.2059   -1.1851 C   0  0  0  0  0  0  0  0  0  0  0  0
   -4.7583   -1.1872    1.0555 C   0  0  0  0  0  0  0  0  0  0  0  0
    1.3535    0.6702    0.1757 C   0  0  0  0  0  0  0  0  0  0  0  0
    1.4036   -2.0426   -1.0181 C   0  0  0  0  0  0  0  0  0  0  0  0
    2.5952    0.0812    0.7580 C   0  0  0  0  0  0  0  0  0  0  0  0
    3.8195    0.3184    0.2838 C   0  0  0  0  0  0  0  0  0  0  0  0
    4.2224    1.2308   -0.8102 C   0  0  1  0  0  0  0  0  0  0  0  0
    5.0322   -0.2856    0.8685 C   0  0  0  0  0  0  0  0  0  0  0  0
    5.6496    1.5282   -0.4094 C   0  0  0  0  0  0  0  0  0  0  0  0
 11  1  1  6
  2 17  1  0
  3 24  1  0
  3 25  1  0
 23  4  1  6
  5 24  2  0
  6  7  1  0
  6  9  1  0
  6 10  1  0
  6 14  1  6
  7  8  1  0
  7 12  1  6
  8 11  1  0
  8 17  1  0
  8 18  1  1
  9 16  1  0
  9 19  1  6
 10 13  1  0
 11 13  1  0
 12 15  1  0
 15 16  1  0
 16 20  2  0
 19 21  1  0
 21 22  2  0
 22 23  1  0
 22 24  1  0
 23 25  1  0
M  END
>  <KEY>
ANDROGRAPHOLIDE

>  <NAME>
Andrographolide

>  <SOURCE>
pubchem-3d:5318517

>  <SMILES>
C=C1CC[C@@H]2[C@](C)(CO)[C@H](O)CC[C@@]2(C)[C@@H]1C/C=C1/C(=O)OC[C@H]1O

>  <FORMULA>
C20H30O5

>  <MW>
350.46

>  <HEAVY_ATOMS>
25

>  <ROTATABLE_BONDS>
3

$$$$
