APIGENIN
     RDKit          3D

 20 22  0  0  0  0  0  0  0  0999 V2000
   -2.7640   -1.0310    0.4897 C   0  0  0  0  0  0  0  0  0  0  0  0
   -4.0475   -1.1951    0.9600 C   0  0  0  0  0  0  0  0  0  0  0  0
   -4.5705   -0.2992    1.8852 C   0  0  0  0  0  0  0  0  0  0  0  0
   -5.8366   -0.4644    2.3454 O   0  0  0  0  0  0  0  0  0  0  0  0
   -3.8010    0.7650    2.3406 C   0  0  0  0  0  0  0  0  0  0  0  0
   -2.5159    0.9359    1.8760 C   0  0  0  0  0  0  0  0  0  0  0  0
   -1.9855    0.0376    0.9455 C   0  0  0  0  0  0  0  0  0  0  0  0
   -0.6100    0.2167    0.4451 C   0  0  0  0  0  0  0  0  0  0  0  0
   -0.1285   -0.6614   -0.4484 O   0  0  0  0  0  0  0  0  0  0  0  0
    0.1208    1.2690    0.9026 C   0  0  0  0  0  0  0  0  0  0  0  0
    1.4423    1.4577    0.4334 C   0  0  0  0  0  0  0  0  0  0  0  0
    2.1260    2.3901    0.8229 O   0  0  0  0  0  0  0  0  0  0  0  0
    1.9605    0.4831   -0.5423 C   0  0  0  0  0  0  0  0  0  0  0  0
    1.1203   -0.5656   -0.9527 C   0  0  0  0  0  0  0  0  0  0  0  0
    1.5866   -1.4909   -1.8742 C   0  0  0  0  0  0  0  0  0  0  0  0
    2.8713   -1.3780   -2.3820 C   0  0  0  0  0  0  0  0  0  0  0  0
    3.3204   -2.2877   -3.2835 O   0  0  0  0  0  0  0  0  0  0  0  0
    3.7044   -0.3394   -1.9775 C   0  0  0  0  0  0  0  0  0  0  0  0
    3.2576    0.5919   -1.0591 C   0  0  0  0  0  0  0  0  0  0  0  0
    4.0673    1.6074   -0.6668 O   0  0  0  0  0  0  0  0  0  0  0  0
  1  2  2  0
  1  7  1  0
  2  3  1  0
  3  4  1  0
  3  5  2  0
  5  6  1  0
  6  7  2  0
  7  8  1  0
  8  9  1  0
  8 10  2  0
  9 14  1  0
 10 11  1  0
 11 12  2  0
 11 13  1  0
 13 14  1  0
 13 19  2  0
 14 15  2  0
 15 16  1  0
 16 17  1  0
 16 18  2  0
 18 19  1  0
 19 20  1  0
M  END
>  <KEY>
APIGENIN

>  <NAME>
Apigenin

>  <SOURCE>
rcsb-ccd:AGI

>  <SMILES>
O=c1cc(-c2ccc(O)cc2)oc2cc(O)cc(O)c12

>  <FORMULA>
C15H10O5

>  <MW>
270.24

>  <HEAVY_ATOMS>
20

>  <ROTATABLE_BONDS>
1

$$$$
