ARCTIGENIN
     RDKit          3D

 27 29  0  0  1  0  0  0  0  0999 V2000
   -1.4520   -1.5620    0.3120 C   0  0  0  0  0  0  0  0  0  0  0  0
   -3.4790    1.9210    0.5570 C   0  0  0  0  0  0  0  0  0  0  0  0
    1.4580    0.1990    1.1430 C   0  0  0  0  0  0  0  0  0  0  0  0
   -1.6490    0.7310   -0.6660 C   0  0  0  0  0  0  0  0  0  0  0  0
    5.5710   -0.1960    0.0410 C   0  0  0  0  0  0  0  0  0  0  0  0
   -3.0940    0.8780   -0.2640 C   0  0  0  0  0  0  0  0  0  0  0  0
    2.9070    0.0620    0.7540 C   0  0  0  0  0  0  0  0  0  0  0  0
    3.5570    1.1120    0.1310 C   0  0  0  0  0  0  0  0  0  0  0  0
    4.8890    0.9870   -0.2270 C   0  0  0  0  0  0  0  0  0  0  0  0
    4.9150   -1.2440    0.6660 C   0  0  0  0  0  0  0  0  0  0  0  0
    3.5850   -1.1130    1.0210 C   0  0  0  0  0  0  0  0  0  0  0  0
   -0.9220   -0.1430    0.3570 C   0  0  2  0  0  0  0  0  0  0  0  0
    0.7430   -1.7900   -0.2440 C   0  0  0  0  0  0  0  0  0  0  0  0
   -4.8020    2.0570    0.9330 C   0  0  0  0  0  0  0  0  0  0  0  0
   -5.7460    1.1460    0.4870 C   0  0  0  0  0  0  0  0  0  0  0  0
   -5.3590    0.0960   -0.3400 C   0  0  0  0  0  0  0  0  0  0  0  0
   -4.0320   -0.0310   -0.7180 C   0  0  0  0  0  0  0  0  0  0  0  0
    4.7670    3.2020   -1.0840 C   0  0  0  0  0  0  0  0  0  0  0  0
    0.5730   -0.2740   -0.0110 C   0  0  2  0  0  0  0  0  0  0  0  0
    7.5120   -1.5690   -0.0100 C   0  0  0  0  0  0  0  0  0  0  0  0
   -5.8120   -1.8530   -1.6260 C   0  0  0  0  0  0  0  0  0  0  0  0
   -0.6090   -2.3000   -0.4310 O   0  0  0  0  0  0  0  0  0  0  0  0
    5.5290    2.0190   -0.8400 O   0  0  0  0  0  0  0  0  0  0  0  0
    6.8780   -0.3250   -0.3130 O   0  0  0  0  0  0  0  0  0  0  0  0
   -6.2810   -0.8010   -0.7800 O   0  0  0  0  0  0  0  0  0  0  0  0
   -7.0490    1.2770    0.8570 O   0  0  0  0  0  0  0  0  0  0  0  0
   -2.4560   -1.9610    0.8540 O   0  0  0  0  0  0  0  0  0  0  0  0
  1 27  2  0
  2  6  1  0
 19  3  1  1
  5 10  1  0
  5  9  2  0
  6  4  1  0
  6 17  2  0
  7  3  1  0
  8  7  2  0
  9  8  1  0
 10 11  2  0
 11  7  1  0
 12  1  1  0
 12  4  1  6
 13 19  1  0
 13 22  1  0
 14  2  2  0
 14 15  1  0
 15 16  2  0
 16 17  1  0
 16 25  1  0
 19 12  1  0
 20 24  1  0
 22  1  1  0
 23  9  1  0
 23 18  1  0
 24  5  1  0
 25 21  1  0
 26 15  1  0
M  END
>  <KEY>
ARCTIGENIN

>  <NAME>
Arctigenin

>  <SOURCE>
rcsb-ccd:EQC

>  <SMILES>
COc1cc(C[C@H]2C(=O)OC[C@@H]2Cc2ccc(OC)c(OC)c2)ccc1O

>  <FORMULA>
C21H24O6

>  <MW>
372.42

>  <HEAVY_ATOMS>
27

>  <ROTATABLE_BONDS>
7

$$$$
