ARTEMISININ
     RDKit          3D

 20 23  0  0  1  0  0  0  0  0999 V2000
   -0.4252   -0.6113   -1.5237 O   0  0  0  0  0  0  0  0  0  0  0  0
   -1.2458   -1.2966    1.1754 O   0  0  0  0  0  0  0  0  0  0  0  0
    1.0859   -1.5145    0.9859 O   0  0  0  0  0  0  0  0  0  0  0  0
   -0.8936   -1.9136   -1.0661 O   0  0  0  0  0  0  0  0  0  0  0  0
    3.3238   -1.7230    0.9847 O   0  0  0  0  0  0  0  0  0  0  0  0
   -0.0882    0.2179   -0.3851 C   0  0  2  0  0  0  0  0  0  0  0  0
   -1.1855    1.3234   -0.3610 C   0  0  2  0  0  0  0  0  0  0  0  0
    1.3016    0.8085   -0.6947 C   0  0  1  0  0  0  0  0  0  0  0  0
   -0.8010    2.5229    0.5493 C   0  0  1  0  0  0  0  0  0  0  0  0
   -0.0232   -0.5876    0.9278 C   0  0  1  0  0  0  0  0  0  0  0  0
    1.6603    1.9621    0.2517 C   0  0  0  0  0  0  0  0  0  0  0  0
   -2.5880    0.7824    0.0088 C   0  0  0  0  0  0  0  0  0  0  0  0
    0.5974    3.0536    0.2112 C   0  0  0  0  0  0  0  0  0  0  0  0
    2.3458   -0.3230   -0.7226 C   0  0  2  0  0  0  0  0  0  0  0  0
   -1.8713   -1.6894   -0.0476 C   0  0  2  0  0  0  0  0  0  0  0  0
   -2.9166   -0.6370   -0.4718 C   0  0  0  0  0  0  0  0  0  0  0  0
   -1.8086    3.6752    0.4553 C   0  0  0  0  0  0  0  0  0  0  0  0
    2.3161   -1.2026    0.5133 C   0  0  0  0  0  0  0  0  0  0  0  0
    3.7640    0.1884   -0.9898 C   0  0  0  0  0  0  0  0  0  0  0  0
   -2.5476   -3.0359    0.1990 C   0  0  0  0  0  0  0  0  0  0  0  0
  1  4  1  0
  6  1  1  6
  2 10  1  0
  2 15  1  0
 10  3  1  6
  3 18  1  0
  4 15  1  0
  5 18  2  0
  6  7  1  0
  6  8  1  0
  6 10  1  0
  7  9  1  0
  7 12  1  1
  8 11  1  1
  8 14  1  0
  9 13  1  0
  9 17  1  6
 11 13  1  0
 12 16  1  0
 14 18  1  0
 14 19  1  1
 15 16  1  0
 15 20  1  1
M  END
>  <KEY>
ARTEMISININ

>  <NAME>
Artemisinin

>  <SOURCE>
pubchem-3d:68827

>  <SMILES>
C[C@@H]1CC[C@H]2[C@@H](C)C(=O)O[C@@H]3O[C@@]4(C)CC[C@@H]1[C@]32OO4

>  <FORMULA>
C15H22O5

>  <MW>
282.34

>  <HEAVY_ATOMS>
20

>  <ROTATABLE_BONDS>
0

$$$$
