ASIATIC_ACID
     RDKit          3D

 35 39  0  0  1  0  0  0  0  0999 V2000
    6.5120    0.7080   -0.0890 O   0  0  0  0  0  0  0  0  0  0  0  0
    5.1050    0.9000    0.0960 C   0  0  1  0  0  0  0  0  0  0  0  0
    4.4810    1.3400   -1.2220 C   0  0  2  0  0  0  0  0  0  0  0  0
    5.0290    2.6160   -1.5910 O   0  0  0  0  0  0  0  0  0  0  0  0
    2.9700    1.4870   -1.0620 C   0  0  0  0  0  0  0  0  0  0  0  0
    2.3530    0.1220   -0.7110 C   0  0  2  0  0  0  0  0  0  0  0  0
    2.6040   -0.8230   -1.8800 C   0  0  0  0  0  0  0  0  0  0  0  0
    0.8560    0.3340   -0.4720 C   0  0  1  0  0  0  0  0  0  0  0  0
    0.1490    0.7470   -1.7610 C   0  0  0  0  0  0  0  0  0  0  0  0
   -1.3270    0.8660   -1.5210 C   0  0  0  0  0  0  0  0  0  0  0  0
   -1.9590    0.3730   -0.4880 C   0  0  0  0  0  0  0  0  0  0  0  0
   -3.4600    0.5900   -0.4550 C   0  0  2  0  0  0  0  0  0  0  0  0
   -3.8290    1.6980    0.5240 C   0  0  1  0  0  0  0  0  0  0  0  0
   -3.1910    3.0200    0.0890 C   0  0  0  0  0  0  0  0  0  0  0  0
   -5.3520    1.8760    0.5570 C   0  0  2  0  0  0  0  0  0  0  0  0
   -5.7090    2.9970    1.5340 C   0  0  0  0  0  0  0  0  0  0  0  0
   -5.9930    0.5670    1.0230 C   0  0  0  0  0  0  0  0  0  0  0  0
   -5.6490   -0.5410    0.0280 C   0  0  0  0  0  0  0  0  0  0  0  0
   -4.1360   -0.7250   -0.0700 C   0  0  1  0  0  0  0  0  0  0  0  0
   -3.8640   -1.7500   -1.1460 C   0  0  0  0  0  0  0  0  0  0  0  0
   -4.3590   -2.9930   -1.0290 O   0  0  0  0  0  0  0  0  0  0  0  0
   -3.2010   -1.4520   -2.1110 O   0  0  0  0  0  0  0  0  0  0  0  0
   -3.5700   -1.2110    1.2590 C   0  0  0  0  0  0  0  0  0  0  0  0
   -2.0860   -1.5480    1.1320 C   0  0  0  0  0  0  0  0  0  0  0  0
   -1.2670   -0.3770    0.6100 C   0  0  2  0  0  0  0  0  0  0  0  0
   -1.0760    0.5970    1.7820 C   0  0  0  0  0  0  0  0  0  0  0  0
    0.1280   -0.8410    0.1590 C   0  0  1  0  0  0  0  0  0  0  0  0
   -0.0860   -1.9480   -0.8880 C   0  0  0  0  0  0  0  0  0  0  0  0
    0.8850   -1.4420    1.3370 C   0  0  0  0  0  0  0  0  0  0  0  0
    2.3530   -1.7130    0.9720 C   0  0  0  0  0  0  0  0  0  0  0  0
    2.9820   -0.3750    0.5850 C   0  0  1  0  0  0  0  0  0  0  0  0
    4.4910   -0.3960    0.6240 C   0  0  1  0  0  0  0  0  0  0  0  0
    5.0880   -1.5950   -0.1140 C   0  0  0  0  0  0  0  0  0  0  0  0
    4.9330   -0.5130    2.1060 C   0  0  0  0  0  0  0  0  0  0  0  0
    6.3600   -0.5360    2.1770 O   0  0  0  0  0  0  0  0  0  0  0  0
  2  1  1  6
  3  5  1  0
  3  2  1  0
  3  4  1  1
  6  8  1  0
  6 31  1  0
  6  5  1  0
  6  7  1  6
  9 10  1  0
  8  9  1  6
 10 11  2  0
 11 25  1  0
 12 11  1  1
 12 13  1  0
 13 14  1  6
 13 15  1  0
 15 16  1  1
 17 15  1  0
 18 17  1  0
 19 18  1  0
 19 12  1  0
 19 23  1  0
 19 20  1  6
 21 20  1  0
 22 20  2  0
 24 23  1  0
 24 25  1  0
 25 26  1  1
 27 29  1  0
 27  8  1  0
 27 25  1  0
 27 28  1  6
 30 29  1  0
 31 30  1  6
 31 32  1  0
 32 34  1  0
 32  2  1  0
 32 33  1  6
 34 35  1  0
M  END
>  <KEY>
ASIATIC_ACID

>  <NAME>
Asiatic acid

>  <SOURCE>
rcsb-ccd:0AS

>  <SMILES>
C[C@H]1[C@H](C)CC[C@]2(C(=O)O)CC[C@]3(C)C(=CC[C@@H]4[C@@]5(C)C[C@@H](O)[C@H](O)[C@@](C)(CO)[C@@H]5CC[C@]43C)[C@H]12

>  <FORMULA>
C30H48O5

>  <MW>
488.71

>  <HEAVY_ATOMS>
35

>  <ROTATABLE_BONDS>
2

$$$$
