BAICALEIN
     RDKit          3D

 20 22  0  0  0  0  0  0  0  0999 V2000
   -2.7081    1.1578    2.1546 C   0  0  0  0  0  0  0  0  0  0  0  0
   -3.8770    1.3699    2.8541 C   0  0  0  0  0  0  0  0  0  0  0  0
   -1.3611   -0.1552    0.5215 C   0  0  0  0  0  0  0  0  0  0  0  0
   -1.2985   -1.2141   -0.3285 C   0  0  0  0  0  0  0  0  0  0  0  0
   -0.1124   -1.4469   -1.0668 C   0  0  0  0  0  0  0  0  0  0  0  0
    2.2142   -0.6644   -1.5552 C   0  0  0  0  0  0  0  0  0  0  0  0
    1.8748    1.4478    0.2416 C   0  0  0  0  0  0  0  0  0  0  0  0
   -0.0211   -2.3877   -1.8389 O   0  0  0  0  0  0  0  0  0  0  0  0
    1.0051   -0.5094   -0.8663 C   0  0  0  0  0  0  0  0  0  0  0  0
    0.8349    0.5535    0.0370 C   0  0  0  0  0  0  0  0  0  0  0  0
    3.0701    1.2920   -0.4415 C   0  0  0  0  0  0  0  0  0  0  0  0
    4.0835    2.1717   -0.2344 O   0  0  0  0  0  0  0  0  0  0  0  0
    3.2419    0.2394   -1.3389 C   0  0  0  0  0  0  0  0  0  0  0  0
    4.4229    0.0978   -2.0030 O   0  0  0  0  0  0  0  0  0  0  0  0
    2.3788   -1.6927   -2.4278 O   0  0  0  0  0  0  0  0  0  0  0  0
   -0.3354    0.6929    0.6958 O   0  0  0  0  0  0  0  0  0  0  0  0
   -2.6087    0.0750    1.2771 C   0  0  0  0  0  0  0  0  0  0  0  0
   -3.6943   -0.7887    1.1188 C   0  0  0  0  0  0  0  0  0  0  0  0
   -4.8563   -0.5680    1.8284 C   0  0  0  0  0  0  0  0  0  0  0  0
   -4.9517    0.5123    2.6886 C   0  0  0  0  0  0  0  0  0  0  0  0
  1 17  2  0
  2 20  2  0
  2  1  1  0
  3 16  1  0
  4  3  2  0
  4  5  1  0
  5  9  1  0
  6 13  1  0
  7 11  1  0
  8  5  2  0
  9 10  1  0
  9  6  2  0
 10  7  2  0
 11 12  1  0
 13 11  2  0
 13 14  1  0
 15  6  1  0
 16 10  1  0
 17 18  1  0
 17  3  1  0
 19 18  2  0
 20 19  1  0
M  END
>  <KEY>
BAICALEIN

>  <NAME>
Baicalein

>  <SOURCE>
rcsb-ccd:3WL

>  <SMILES>
O=c1cc(-c2ccccc2)oc2cc(O)c(O)c(O)c12

>  <FORMULA>
C15H10O5

>  <MW>
270.24

>  <HEAVY_ATOMS>
20

>  <ROTATABLE_BONDS>
1

$$$$
