BENZYL_ISOTHIOCYANATE
     RDKit          3D

 10 10  0  0  0  0  0  0  0  0999 V2000
    4.6171   -0.0446   -0.0098 S   0  0  0  0  0  0  0  0  0  0  0  0
    1.8973    0.0431   -0.5032 N   0  0  0  0  0  0  0  0  0  0  0  0
   -0.4106    0.0137    0.3416 C   0  0  0  0  0  0  0  0  0  0  0  0
    1.0399    0.0355    0.6887 C   0  0  0  0  0  0  0  0  0  0  0  0
   -1.1059    1.2114    0.1751 C   0  0  0  0  0  0  0  0  0  0  0  0
   -1.0717   -1.2042    0.1838 C   0  0  0  0  0  0  0  0  0  0  0  0
   -2.4625    1.1911   -0.1490 C   0  0  0  0  0  0  0  0  0  0  0  0
   -2.4282   -1.2247   -0.1405 C   0  0  0  0  0  0  0  0  0  0  0  0
   -3.1236   -0.0269   -0.3069 C   0  0  0  0  0  0  0  0  0  0  0  0
    3.0482    0.0056   -0.2797 C   0  0  0  0  0  0  0  0  0  0  0  0
  1 10  2  0
  2  4  1  0
  2 10  2  0
  3  4  1  0
  3  5  2  0
  3  6  1  0
  5  7  1  0
  6  8  2  0
  7  9  2  0
  8  9  1  0
M  END
>  <KEY>
BENZYL_ISOTHIOCYANATE

>  <NAME>
Benzyl isothiocyanate

>  <SOURCE>
pubchem-3d:2346

>  <SMILES>
S=C=NCc1ccccc1

>  <FORMULA>
C8H7NS

>  <MW>
149.22

>  <HEAVY_ATOMS>
10

>  <ROTATABLE_BONDS>
2

$$$$
