BERBERINE
     RDKit          3D

 25 29  0  0  0  0  0  0  0  0999 V2000
   -0.5400   -0.1940    0.0130 C   0  0  0  0  0  0  0  0  0  0  0  0
   -2.0250   -0.1390    0.0140 C   0  0  0  0  0  0  0  0  0  0  0  0
    0.0780   -1.3790   -0.0330 N   0  0  0  0  0  0  0  0  0  0  0  0
    0.1710    0.9930    0.0380 C   0  0  0  0  0  0  0  0  0  0  0  0
   -2.7390   -1.2940    0.3270 C   0  0  0  0  0  0  0  0  0  0  0  0
   -2.6760    1.0670   -0.2640 C   0  0  0  0  0  0  0  0  0  0  0  0
    1.3910   -1.4760    0.0080 C   0  0  0  0  0  0  0  0  0  0  0  0
   -0.6970   -2.6200   -0.1410 C   0  0  0  0  0  0  0  0  0  0  0  0
    1.5730    0.9450    0.0660 C   0  0  0  0  0  0  0  0  0  0  0  0
   -4.1240   -1.3100    0.3300 C   0  0  0  0  0  0  0  0  0  0  0  0
   -1.9750   -2.5440    0.6860 C   0  0  0  0  0  0  0  0  0  0  0  0
   -4.0620    1.0540   -0.2570 C   0  0  0  0  0  0  0  0  0  0  0  0
    2.1970   -0.3320    0.0670 C   0  0  0  0  0  0  0  0  0  0  0  0
    2.3600    2.1050    0.0980 C   0  0  0  0  0  0  0  0  0  0  0  0
   -4.7770   -0.1210    0.0300 C   0  0  0  0  0  0  0  0  0  0  0  0
   -4.9420    2.0530   -0.4940 O   0  0  0  0  0  0  0  0  0  0  0  0
    3.6010   -0.4110    0.1170 C   0  0  0  0  0  0  0  0  0  0  0  0
    3.7180    2.0010    0.1440 C   0  0  0  0  0  0  0  0  0  0  0  0
   -6.1010    0.1480   -0.0400 O   0  0  0  0  0  0  0  0  0  0  0  0
   -6.2060    1.5860    0.0230 C   0  0  0  0  0  0  0  0  0  0  0  0
    4.3430    0.7530    0.1590 C   0  0  0  0  0  0  0  0  0  0  0  0
    4.2200   -1.6210    0.1290 O   0  0  0  0  0  0  0  0  0  0  0  0
    5.7010    0.6830    0.2100 O   0  0  0  0  0  0  0  0  0  0  0  0
    4.4580   -1.9760   -1.2340 C   0  0  0  0  0  0  0  0  0  0  0  0
    6.1830    2.0280    0.2370 C   0  0  0  0  0  0  0  0  0  0  0  0
  1  2  1  0
  1  3  1  0
  1  4  2  0
  2  5  1  0
  2  6  2  0
  3  7  2  0
  3  8  1  0
  4  9  1  0
  5 10  2  0
  5 11  1  0
  6 12  1  0
  7 13  1  0
  8 11  1  0
  9 13  1  0
  9 14  2  0
 10 15  1  0
 12 15  2  0
 12 16  1  0
 13 17  2  0
 14 18  1  0
 15 19  1  0
 16 20  1  0
 17 21  1  0
 17 22  1  0
 18 21  2  0
 19 20  1  0
 21 23  1  0
 22 24  1  0
 23 25  1  0
M  CHG  1   3   1
M  END
>  <KEY>
BERBERINE

>  <NAME>
Berberine

>  <SOURCE>
rcsb-ccd:BER

>  <SMILES>
COc1ccc2cc3[n+](cc2c1OC)CCc1cc2c(cc1-3)OCO2

>  <FORMULA>
C20H18NO4+

>  <MW>
336.37

>  <HEAVY_ATOMS>
25

>  <ROTATABLE_BONDS>
2

$$$$
