BERGAPTEN
     RDKit          3D

 16 18  0  0  0  0  0  0  0  0999 V2000
    2.6797   -1.9443   -0.1144 O   0  0  0  0  0  0  0  0  0  0  0  0
   -2.1227   -1.3565   -0.1192 O   0  0  0  0  0  0  0  0  0  0  0  0
    0.9529    2.3600    0.3831 O   0  0  0  0  0  0  0  0  0  0  0  0
   -4.3807   -0.9732   -0.1104 O   0  0  0  0  0  0  0  0  0  0  0  0
    1.7917    0.1198    0.1232 C   0  0  0  0  0  0  0  0  0  0  0  0
   -0.5955    0.5239    0.1344 C   0  0  0  0  0  0  0  0  0  0  0  0
    0.7142    1.0226    0.2159 C   0  0  0  0  0  0  0  0  0  0  0  0
    1.5183   -1.2343   -0.0462 C   0  0  0  0  0  0  0  0  0  0  0  0
   -0.8070   -0.8442   -0.0358 C   0  0  0  0  0  0  0  0  0  0  0  0
    0.2357   -1.7702   -0.1320 C   0  0  0  0  0  0  0  0  0  0  0  0
    3.2075    0.2254    0.1589 C   0  0  0  0  0  0  0  0  0  0  0  0
   -1.7497    1.4046    0.2236 C   0  0  0  0  0  0  0  0  0  0  0  0
    3.6960   -1.0519    0.0112 C   0  0  0  0  0  0  0  0  0  0  0  0
   -2.9867    0.9089    0.1434 C   0  0  0  0  0  0  0  0  0  0  0  0
   -3.2393   -0.5319   -0.0365 C   0  0  0  0  0  0  0  0  0  0  0  0
    1.0855    3.1410   -0.7993 C   0  0  0  0  0  0  0  0  0  0  0  0
  1  8  1  0
  1 13  1  0
  2  9  1  0
  2 15  1  0
  3  7  1  0
  3 16  1  0
  4 15  2  0
  5  7  2  0
  5  8  1  0
  5 11  1  0
  6  7  1  0
  6  9  2  0
  6 12  1  0
  8 10  2  0
  9 10  1  0
 11 13  2  0
 12 14  2  0
 14 15  1  0
M  END
>  <KEY>
BERGAPTEN

>  <NAME>
Bergapten

>  <SOURCE>
pubchem-3d:2355

>  <SMILES>
COc1c2ccoc2cc2oc(=O)ccc12

>  <FORMULA>
C12H8O4

>  <MW>
216.19

>  <HEAVY_ATOMS>
16

>  <ROTATABLE_BONDS>
1

$$$$
