BETANIN
     RDKit          3D

 39 42  0  0  1  0  0  0  0  0999 V2000
    4.8962    0.5835    0.6343 O   0  0  0  0  0  0  0  0  0  0  0  0
    4.1933    0.6917   -1.5879 O   0  0  0  0  0  0  0  0  0  0  0  0
    8.8209    1.1304   -0.4449 O   0  0  0  0  0  0  0  0  0  0  0  0
    8.1816    0.0945    2.1770 O   0  0  0  0  0  0  0  0  0  0  0  0
    6.8505    0.2026   -2.4293 O   0  0  0  0  0  0  0  0  0  0  0  0
    4.0720   -0.0921    3.1681 O   0  0  0  0  0  0  0  0  0  0  0  0
    2.2260    2.5740   -1.0423 O   0  0  0  0  0  0  0  0  0  0  0  0
   -1.3086   -4.3680    0.7278 O   0  0  0  0  0  0  0  0  0  0  0  0
   -0.6571   -2.4346    1.7445 O   0  0  0  0  0  0  0  0  0  0  0  0
   -4.6185    3.8877    0.7139 O   0  0  0  0  0  0  0  0  0  0  0  0
   -6.7767    3.7442   -0.0054 O   0  0  0  0  0  0  0  0  0  0  0  0
   -8.5976   -0.6871   -1.2216 O   0  0  0  0  0  0  0  0  0  0  0  0
   -8.8717   -1.2131    1.0000 O   0  0  0  0  0  0  0  0  0  0  0  0
   -0.9746   -1.1154   -0.6615 N   0  0  0  0  0  0  0  0  0  0  0  0
   -6.9353    1.1735    0.4928 N   0  0  0  0  0  0  0  0  0  0  0  0
    7.6484    0.3666   -0.1577 C   0  0  1  0  0  0  0  0  0  0  0  0
    7.2305    0.6652    1.2822 C   0  0  1  0  0  0  0  0  0  0  0  0
    6.5423    0.7418   -1.1441 C   0  0  2  0  0  0  0  0  0  0  0  0
    5.8457    0.0839    1.5775 C   0  0  1  0  0  0  0  0  0  0  0  0
    5.1899    0.1829   -0.7021 C   0  0  1  0  0  0  0  0  0  0  0  0
   -0.7364   -2.5663   -0.6697 C   0  0  1  0  0  0  0  0  0  0  0  0
    0.6968   -2.8118   -1.1867 C   0  0  0  0  0  0  0  0  0  0  0  0
    1.2789   -1.4371   -1.1491 C   0  0  0  0  0  0  0  0  0  0  0  0
    0.2777   -0.4996   -0.8731 C   0  0  0  0  0  0  0  0  0  0  0  0
    5.3570    0.4688    2.9703 C   0  0  0  0  0  0  0  0  0  0  0  0
    2.9052    0.2960   -1.3526 C   0  0  0  0  0  0  0  0  0  0  0  0
    2.5900   -1.0613   -1.3939 C   0  0  0  0  0  0  0  0  0  0  0  0
    0.5915    0.8529   -0.8402 C   0  0  0  0  0  0  0  0  0  0  0  0
    1.9124    1.2469   -1.0784 C   0  0  0  0  0  0  0  0  0  0  0  0
   -2.1716   -0.5059   -0.4690 C   0  0  0  0  0  0  0  0  0  0  0  0
   -0.8855   -3.0803    0.7324 C   0  0  0  0  0  0  0  0  0  0  0  0
   -3.3589   -1.0893   -0.2681 C   0  0  0  0  0  0  0  0  0  0  0  0
   -4.5820   -0.3557   -0.0723 C   0  0  0  0  0  0  0  0  0  0  0  0
   -4.5096    1.1471   -0.1035 C   0  0  0  0  0  0  0  0  0  0  0  0
   -5.6181    1.7660    0.7490 C   0  0  1  0  0  0  0  0  0  0  0  0
   -5.7536   -0.9750    0.1263 C   0  0  0  0  0  0  0  0  0  0  0  0
   -6.9298   -0.0895    0.2482 C   0  0  0  0  0  0  0  0  0  0  0  0
   -5.7657    3.2205    0.4384 C   0  0  0  0  0  0  0  0  0  0  0  0
   -8.2555   -0.7386    0.0705 C   0  0  0  0  0  0  0  0  0  0  0  0
  1 19  1  0
  1 20  1  0
 20  2  1  6
  2 26  1  0
 16  3  1  6
 17  4  1  1
 18  5  1  6
  6 25  1  0
  7 29  1  0
  8 31  1  0
  9 31  2  0
 10 38  1  0
 11 38  2  0
 12 39  1  0
 13 39  2  0
 14 21  1  0
 14 24  1  0
 14 30  1  0
 15 35  1  0
 15 37  2  0
 16 17  1  0
 16 18  1  0
 17 19  1  0
 18 20  1  0
 19 25  1  1
 21 22  1  0
 21 31  1  1
 22 23  1  0
 23 24  1  0
 23 27  2  0
 24 28  2  0
 26 27  1  0
 26 29  2  0
 28 29  1  0
 30 32  2  0
 32 33  1  0
 33 34  1  0
 33 36  2  0
 34 35  1  0
 35 38  1  6
 36 37  1  0
 37 39  1  0
M  END
>  <KEY>
BETANIN

>  <NAME>
Betanin

>  <SOURCE>
pubchem-3d:6540685

>  <SMILES>
O=C(O)C1=N[C@H](C(=O)O)CC(/C=C/N2c3cc(O)c(O[C@@H]4O[C@H](CO)[C@@H](O)[C@H](O)[C@H]4O)cc3C[C@H]2C(=O)O)=C1

>  <FORMULA>
C24H26N2O13

>  <MW>
550.47

>  <HEAVY_ATOMS>
39

>  <ROTATABLE_BONDS>
8

$$$$
