BETA_ELEMENE
     RDKit          3D

 15 15  0  0  1  0  0  0  0  0999 V2000
   -1.1243   -0.8292   -0.4532 C   0  0  2  0  0  0  0  0  0  0  0  0
   -0.7580    0.4430    0.3725 C   0  0  1  0  0  0  0  0  0  0  0  0
    1.6965   -0.2462    0.4399 C   0  0  1  0  0  0  0  0  0  0  0  0
    0.7015    0.8866    0.1532 C   0  0  0  0  0  0  0  0  0  0  0  0
   -0.0839   -1.9407   -0.1650 C   0  0  0  0  0  0  0  0  0  0  0  0
    1.3619   -1.4940   -0.3837 C   0  0  0  0  0  0  0  0  0  0  0  0
   -1.1800   -0.5541   -1.9718 C   0  0  0  0  0  0  0  0  0  0  0  0
   -1.6773    1.6082    0.1280 C   0  0  0  0  0  0  0  0  0  0  0  0
   -2.4823   -1.3450   -0.0261 C   0  0  0  0  0  0  0  0  0  0  0  0
    3.1042    0.2012    0.1794 C   0  0  0  0  0  0  0  0  0  0  0  0
   -2.8978    1.6815    0.9969 C   0  0  0  0  0  0  0  0  0  0  0  0
    4.0306    0.1910    1.3589 C   0  0  0  0  0  0  0  0  0  0  0  0
   -1.4202    2.5289   -0.8128 C   0  0  0  0  0  0  0  0  0  0  0  0
   -2.7821   -1.7189    1.2225 C   0  0  0  0  0  0  0  0  0  0  0  0
    3.5113    0.5877   -1.0388 C   0  0  0  0  0  0  0  0  0  0  0  0
  1  2  1  0
  1  5  1  0
  1  7  1  6
  1  9  1  0
  2  4  1  0
  2  8  1  6
  3  4  1  0
  3  6  1  0
  3 10  1  6
  5  6  1  0
  8 11  1  0
  8 13  2  0
  9 14  2  0
 10 12  1  0
 10 15  2  0
M  END
>  <KEY>
BETA_ELEMENE

>  <NAME>
beta-Elemene

>  <SOURCE>
pubchem-3d:6918391

>  <SMILES>
C=C[C@]1(C)CC[C@@H](C(=C)C)C[C@H]1C(=C)C

>  <FORMULA>
C15H24

>  <MW>
204.36

>  <HEAVY_ATOMS>
15

>  <ROTATABLE_BONDS>
3

$$$$
