BETA_LAPACHONE
     RDKit          3D

 18 20  0  0  0  0  0  0  0  0999 V2000
    1.5323   -1.1790    0.1431 O   0  0  0  0  0  0  0  0  0  0  0  0
   -0.2132    3.2692   -0.0241 O   0  0  0  0  0  0  0  0  0  0  0  0
   -2.6817    2.3116   -0.1028 O   0  0  0  0  0  0  0  0  0  0  0  0
    2.8868   -0.7384   -0.0641 C   0  0  0  0  0  0  0  0  0  0  0  0
    3.1471    0.6126    0.6193 C   0  0  0  0  0  0  0  0  0  0  0  0
    2.1470    1.6703    0.1674 C   0  0  0  0  0  0  0  0  0  0  0  0
    0.7650    1.0963    0.0835 C   0  0  0  0  0  0  0  0  0  0  0  0
    0.5294   -0.2283    0.0973 C   0  0  0  0  0  0  0  0  0  0  0  0
    3.7837   -1.8063    0.5763 C   0  0  0  0  0  0  0  0  0  0  0  0
    3.1706   -0.6983   -1.5730 C   0  0  0  0  0  0  0  0  0  0  0  0
   -0.8393   -0.7854    0.0583 C   0  0  0  0  0  0  0  0  0  0  0  0
   -0.3616    2.0562    0.0061 C   0  0  0  0  0  0  0  0  0  0  0  0
   -1.9571    0.0578   -0.0096 C   0  0  0  0  0  0  0  0  0  0  0  0
   -1.7587    1.5148   -0.0409 C   0  0  0  0  0  0  0  0  0  0  0  0
   -1.0673   -2.1721    0.0858 C   0  0  0  0  0  0  0  0  0  0  0  0
   -3.2591   -0.4565   -0.0490 C   0  0  0  0  0  0  0  0  0  0  0  0
   -2.3649   -2.6907    0.0469 C   0  0  0  0  0  0  0  0  0  0  0  0
   -3.4591   -1.8338   -0.0206 C   0  0  0  0  0  0  0  0  0  0  0  0
  1  4  1  0
  1  8  1  0
  2 12  2  0
  3 14  2  0
  4  5  1  0
  4  9  1  0
  4 10  1  0
  5  6  1  0
  6  7  1  0
  7  8  2  0
  7 12  1  0
  8 11  1  0
 11 13  1  0
 11 15  2  0
 12 14  1  0
 13 14  1  0
 13 16  2  0
 15 17  1  0
 16 18  1  0
 17 18  2  0
M  END
>  <KEY>
BETA_LAPACHONE

>  <NAME>
beta-Lapachone

>  <SOURCE>
pubchem-3d:3885

>  <SMILES>
CC1(C)CCC2=C(O1)c1ccccc1C(=O)C2=O

>  <FORMULA>
C15H14O3

>  <MW>
242.27

>  <HEAVY_ATOMS>
18

>  <ROTATABLE_BONDS>
0

$$$$
