BETULIN
     RDKit          3D

 32 36  0  0  1  0  0  0  0  0999 V2000
   -6.0058    1.3789    1.0864 O   0  0  0  0  0  0  0  0  0  0  0  0
    4.7890   -2.8314    1.3809 O   0  0  0  0  0  0  0  0  0  0  0  0
   -0.5843   -0.9762    0.1177 C   0  0  1  0  0  0  0  0  0  0  0  0
    0.8981   -0.8888   -0.5554 C   0  0  1  0  0  0  0  0  0  0  0  0
   -1.2427    0.4621    0.0741 C   0  0  1  0  0  0  0  0  0  0  0  0
    1.7525    0.1825    0.2436 C   0  0  1  0  0  0  0  0  0  0  0  0
   -2.7961    0.5700    0.4160 C   0  0  2  0  0  0  0  0  0  0  0  0
    3.2123    0.2106   -0.2568 C   0  0  2  0  0  0  0  0  0  0  0  0
    3.8884   -1.1708   -0.0813 C   0  0  1  0  0  0  0  0  0  0  0  0
   -3.5616   -0.5067   -0.4299 C   0  0  1  0  0  0  0  0  0  0  0  0
    1.6430   -2.2725   -0.5507 C   0  0  0  0  0  0  0  0  0  0  0  0
   -1.4993   -1.9706   -0.6482 C   0  0  0  0  0  0  0  0  0  0  0  0
   -0.3575    1.5008    0.8006 C   0  0  0  0  0  0  0  0  0  0  0  0
    1.0717    1.5576    0.2528 C   0  0  0  0  0  0  0  0  0  0  0  0
    3.1380   -2.2062   -0.9287 C   0  0  0  0  0  0  0  0  0  0  0  0
   -2.9736   -1.9184   -0.2367 C   0  0  0  0  0  0  0  0  0  0  0  0
    4.2334    1.1792    0.3689 C   0  0  1  0  0  0  0  0  0  0  0  0
   -5.1401   -0.4497   -0.3470 C   0  0  0  0  0  0  0  0  0  0  0  0
   -3.2983    1.9937   -0.0220 C   0  0  0  0  0  0  0  0  0  0  0  0
    5.3038   -0.8445   -0.5761 C   0  0  0  0  0  0  0  0  0  0  0  0
   -0.4682   -1.5094    1.5775 C   0  0  0  0  0  0  0  0  0  0  0  0
    0.8029   -0.4828   -2.0672 C   0  0  0  0  0  0  0  0  0  0  0  0
    5.6011    0.5487    0.0080 C   0  0  0  0  0  0  0  0  0  0  0  0
   -3.0627    0.4355    1.9332 C   0  0  0  0  0  0  0  0  0  0  0  0
   -5.6528    1.0231   -0.2480 C   0  0  2  0  0  0  0  0  0  0  0  0
   -4.6317    2.0233   -0.7775 C   0  0  0  0  0  0  0  0  0  0  0  0
    3.9870   -1.6739    1.3817 C   0  0  0  0  0  0  0  0  0  0  0  0
    4.1454    2.5873   -0.1250 C   0  0  0  0  0  0  0  0  0  0  0  0
   -5.7009   -1.0311   -1.6778 C   0  0  0  0  0  0  0  0  0  0  0  0
   -5.7276   -1.3192    0.7846 C   0  0  0  0  0  0  0  0  0  0  0  0
    4.2828    2.7785   -1.6064 C   0  0  0  0  0  0  0  0  0  0  0  0
    3.9540    3.6205    0.7087 C   0  0  0  0  0  0  0  0  0  0  0  0
 25  1  1  1
  2 27  1  0
  3  4  1  0
  3  5  1  0
  3 12  1  0
  3 21  1  1
  4  6  1  0
  4 11  1  0
  4 22  1  6
  5  7  1  0
  5 13  1  1
  6  8  1  0
  6 14  1  6
  7 10  1  0
  7 19  1  0
  7 24  1  1
  8  9  1  0
  8 17  1  1
  9 15  1  0
  9 20  1  0
  9 27  1  1
 10 16  1  1
 10 18  1  0
 11 15  1  0
 12 16  1  0
 13 14  1  0
 17 23  1  0
 17 28  1  6
 18 25  1  0
 18 29  1  0
 18 30  1  0
 19 26  1  0
 20 23  1  0
 25 26  1  0
 28 31  1  0
 28 32  2  0
M  END
>  <KEY>
BETULIN

>  <NAME>
Betulin

>  <SOURCE>
pubchem-3d:72326

>  <SMILES>
C=C(C)[C@@H]1CC[C@]2(CO)CC[C@]3(C)[C@H](CC[C@@H]4[C@@]5(C)CC[C@H](O)C(C)(C)[C@@H]5CC[C@]43C)[C@@H]12

>  <FORMULA>
C30H50O2

>  <MW>
442.73

>  <HEAVY_ATOMS>
32

>  <ROTATABLE_BONDS>
2

$$$$
