BETULINIC_ACID
     RDKit          3D

 33 37  0  0  1  0  0  0  0  0999 V2000
    1.6630    0.2490    0.1760 C   0  0  2  0  0  0  0  0  0  0  0  0
    0.8180   -0.7010   -0.6700 C   0  0  1  0  0  0  0  0  0  0  0  0
   -0.5780   -0.8360   -0.0360 C   0  0  2  0  0  0  0  0  0  0  0  0
   -1.2310    0.5360    0.0180 C   0  0  1  0  0  0  0  0  0  0  0  0
   -2.7030    0.5310    0.4420 C   0  0  2  0  0  0  0  0  0  0  0  0
   -3.4520   -0.4520   -0.4510 C   0  0  2  0  0  0  0  0  0  0  0  0
   -4.9590   -0.4290   -0.3390 C   0  0  0  0  0  0  0  0  0  0  0  0
   -5.4750   -1.1440    0.9090 C   0  0  0  0  0  0  0  0  0  0  0  0
   -4.7610    1.9560    0.5030 C   0  0  0  0  0  0  0  0  0  0  0  0
    1.0010    1.6250    0.2550 C   0  0  0  0  0  0  0  0  0  0  0  0
   -0.3910   -1.4330    1.3670 C   0  0  0  0  0  0  0  0  0  0  0  0
    0.6730   -0.1320   -2.0860 C   0  0  0  0  0  0  0  0  0  0  0  0
    2.9150   -1.9820   -1.3060 C   0  0  0  0  0  0  0  0  0  0  0  0
    4.0580    2.6180   -0.1470 C   0  0  0  0  0  0  0  0  0  0  0  0
    4.2530    2.9420   -1.6060 C   0  0  0  0  0  0  0  0  0  0  0  0
    3.7560   -1.6200    1.0140 C   0  0  0  0  0  0  0  0  0  0  0  0
   -2.8590   -1.8520   -0.3050 C   0  0  0  0  0  0  0  0  0  0  0  0
   -1.4240   -1.8140   -0.8530 C   0  0  0  0  0  0  0  0  0  0  0  0
   -5.5450   -1.1770   -1.5630 C   0  0  0  0  0  0  0  0  0  0  0  0
   -5.5190    0.9920   -0.3990 C   0  0  2  0  0  0  0  0  0  0  0  0
   -3.2710    1.9380    0.1710 C   0  0  0  0  0  0  0  0  0  0  0  0
   -0.4030    1.4990    0.8600 C   0  0  0  0  0  0  0  0  0  0  0  0
    3.7020   -1.0580   -0.3820 C   0  0  2  0  0  0  0  0  0  0  0  0
    1.4760   -2.0780   -0.8020 C   0  0  0  0  0  0  0  0  0  0  0  0
    4.1050    1.1800    0.3200 C   0  0  2  0  0  0  0  0  0  0  0  0
    3.8490    3.5810    0.7150 C   0  0  0  0  0  0  0  0  0  0  0  0
    5.4510    0.5590   -0.0830 C   0  0  0  0  0  0  0  0  0  0  0  0
    3.0630    0.3300   -0.4260 C   0  0  2  0  0  0  0  0  0  0  0  0
    5.1320   -0.7330   -0.8330 C   0  0  0  0  0  0  0  0  0  0  0  0
   -2.8580    0.2410    1.9270 C   0  0  0  0  0  0  0  0  0  0  0  0
    4.3030   -2.8260    1.2310 O   0  0  0  0  0  0  0  0  0  0  0  0
    3.3080   -0.9850    1.9390 O   0  0  0  0  0  0  0  0  0  0  0  0
   -6.8980    0.9650   -0.0090 O   0  0  0  0  0  0  0  0  0  0  0  0
  1 10  1  6
  2  1  1  0
  2 12  1  6
  3  2  1  0
  3  4  1  0
  4  5  1  0
  4 22  1  1
  5 21  1  0
  6  7  1  0
  6  5  1  0
  7 20  1  0
  8  7  1  0
  3 11  1  1
 13 24  1  0
 13 23  1  0
 14 15  1  0
 14 26  2  0
 16 31  1  0
 23 16  1  1
  6 17  1  1
 18 17  1  0
 18  3  1  0
 19  7  1  0
 20 33  1  1
 20  9  1  0
 21  9  1  0
 22 10  1  0
 23 29  1  0
 23 28  1  0
 24  2  1  0
 25 14  1  6
 27 25  1  0
 28  1  1  0
 28 25  1  1
 29 27  1  0
  5 30  1  1
 32 16  2  0
M  END
>  <KEY>
BETULINIC_ACID

>  <NAME>
Betulinic acid

>  <SOURCE>
rcsb-ccd:06L

>  <SMILES>
C=C(C)[C@@H]1CC[C@]2(C(=O)O)CC[C@]3(C)[C@H](CC[C@@H]4[C@@]5(C)CC[C@H](O)C(C)(C)[C@@H]5CC[C@]43C)[C@@H]12

>  <FORMULA>
C30H48O3

>  <MW>
456.71

>  <HEAVY_ATOMS>
33

>  <ROTATABLE_BONDS>
2

$$$$
