BRUSATOL
     RDKit          3D

 37 41  0  0  1  0  0  0  0  0999 V2000
    0.7485   -1.9633   -1.7800 O   0  0  0  0  0  0  0  0  0  0  0  0
   -0.3559    2.2478   -0.0089 O   0  0  0  0  0  0  0  0  0  0  0  0
   -1.5832   -3.1461   -0.5315 O   0  0  0  0  0  0  0  0  0  0  0  0
    0.9037   -2.1751    1.8795 O   0  0  0  0  0  0  0  0  0  0  0  0
    2.6086    0.6406    1.2265 O   0  0  0  0  0  0  0  0  0  0  0  0
    3.1780   -2.1939    0.7497 O   0  0  0  0  0  0  0  0  0  0  0  0
    3.3392   -2.1382   -1.5541 O   0  0  0  0  0  0  0  0  0  0  0  0
    1.2863    2.9981    1.3413 O   0  0  0  0  0  0  0  0  0  0  0  0
   -6.8892    1.1640    0.3734 O   0  0  0  0  0  0  0  0  0  0  0  0
   -6.0979   -1.0735    1.6319 O   0  0  0  0  0  0  0  0  0  0  0  0
    3.0950    1.7267   -0.7506 O   0  0  0  0  0  0  0  0  0  0  0  0
   -0.4227   -0.0818   -0.8853 C   0  0  2  0  0  0  0  0  0  0  0  0
   -1.4161   -0.7558    0.1431 C   0  0  1  0  0  0  0  0  0  0  0  0
    1.0192   -0.1403   -0.3791 C   0  0  2  0  0  0  0  0  0  0  0  0
   -2.9509   -0.4374   -0.1213 C   0  0  2  0  0  0  0  0  0  0  0  0
    1.2543   -1.6400   -0.4591 C   0  0  1  0  0  0  0  0  0  0  0  0
   -0.7505    1.3898   -1.1291 C   0  0  1  0  0  0  0  0  0  0  0  0
   -1.0562   -2.2474    0.4367 C   0  0  2  0  0  0  0  0  0  0  0  0
   -3.1106    1.1192   -0.2104 C   0  0  1  0  0  0  0  0  0  0  0  0
   -0.2080   -0.9340   -2.1482 C   0  0  0  0  0  0  0  0  0  0  0  0
    0.4666   -2.4787    0.5595 C   0  0  2  0  0  0  0  0  0  0  0  0
   -2.2380    1.6665   -1.3666 C   0  0  0  0  0  0  0  0  0  0  0  0
    1.2272    0.6335    0.9034 C   0  0  2  0  0  0  0  0  0  0  0  0
   -3.7787   -0.9107    1.0945 C   0  0  0  0  0  0  0  0  0  0  0  0
   -3.5360   -1.1199   -1.3870 C   0  0  0  0  0  0  0  0  0  0  0  0
   -4.5757    1.5774   -0.2162 C   0  0  0  0  0  0  0  0  0  0  0  0
    2.7032   -2.0159   -0.5159 C   0  0  0  0  0  0  0  0  0  0  0  0
    0.7582    2.0637    0.7444 C   0  0  0  0  0  0  0  0  0  0  0  0
   -5.2143   -0.4389    1.0542 C   0  0  0  0  0  0  0  0  0  0  0  0
   -5.5506    0.8349    0.3546 C   0  0  0  0  0  0  0  0  0  0  0  0
   -4.8430    2.9406   -0.8086 C   0  0  0  0  0  0  0  0  0  0  0  0
    3.4355    1.2221    0.3061 C   0  0  0  0  0  0  0  0  0  0  0  0
    4.5587   -2.5588    0.8429 C   0  0  0  0  0  0  0  0  0  0  0  0
    4.8243    1.1118    0.8125 C   0  0  0  0  0  0  0  0  0  0  0  0
    5.9254    1.5372    0.1671 C   0  0  0  0  0  0  0  0  0  0  0  0
    7.2801    1.3598    0.8039 C   0  0  0  0  0  0  0  0  0  0  0  0
    5.9654    2.2161   -1.1735 C   0  0  0  0  0  0  0  0  0  0  0  0
  1 16  1  0
  1 20  1  0
  2 17  1  0
  2 28  1  0
 18  3  1  6
 21  4  1  1
 23  5  1  6
  5 32  1  0
  6 27  1  0
  6 33  1  0
  7 27  2  0
  8 28  2  0
  9 30  1  0
 10 29  2  0
 11 32  2  0
 12 13  1  0
 12 14  1  0
 12 17  1  0
 12 20  1  6
 13 15  1  0
 13 18  1  6
 14 16  1  0
 14 23  1  1
 15 19  1  0
 15 24  1  0
 15 25  1  6
 16 21  1  0
 16 27  1  6
 17 22  1  1
 18 21  1  0
 19 22  1  6
 19 26  1  0
 23 28  1  0
 24 29  1  0
 26 30  2  0
 26 31  1  0
 29 30  1  0
 32 34  1  0
 34 35  2  3
 35 36  1  0
 35 37  1  0
M  END
>  <KEY>
BRUSATOL

>  <NAME>
Brusatol

>  <SOURCE>
pubchem-3d:73432

>  <SMILES>
COC(=O)[C@@]12OC[C@]34[C@H]([C@@H](O)[C@@H]1O)[C@@]1(C)CC(=O)C(O)=C(C)[C@@H]1C[C@H]3OC(=O)[C@H](OC(=O)C=C(C)C)[C@@H]24

>  <FORMULA>
C26H32O11

>  <MW>
520.53

>  <HEAVY_ATOMS>
37

>  <ROTATABLE_BONDS>
3

$$$$
