BUFALIN
     RDKit          3D

 28 32  0  0  1  0  0  0  0  0999 V2000
    1.6790   -1.1370   -1.3340 C   0  0  0  0  0  0  0  0  0  0  0  0
    1.0410   -0.8830    0.0330 C   0  0  2  0  0  0  0  0  0  0  0  0
    0.0220   -1.9670    0.3900 C   0  0  0  0  0  0  0  0  0  0  0  0
   -1.2380   -1.8260   -0.4590 C   0  0  0  0  0  0  0  0  0  0  0  0
   -1.8870   -0.4720   -0.1520 C   0  0  2  0  0  0  0  0  0  0  0  0
   -3.1930   -0.3350   -0.9370 C   0  0  1  0  0  0  0  0  0  0  0  0
   -2.9010   -0.4550   -2.4340 C   0  0  0  0  0  0  0  0  0  0  0  0
   -4.1610   -1.4420   -0.5170 C   0  0  0  0  0  0  0  0  0  0  0  0
   -4.4630   -1.3170    0.9780 C   0  0  0  0  0  0  0  0  0  0  0  0
   -5.0940    0.0480    1.2590 C   0  0  2  0  0  0  0  0  0  0  0  0
   -6.3080    0.1740    0.5150 O   0  0  0  0  0  0  0  0  0  0  0  0
   -4.1220    1.1530    0.8420 C   0  0  0  0  0  0  0  0  0  0  0  0
   -3.8230    1.0290   -0.6500 C   0  0  1  0  0  0  0  0  0  0  0  0
   -2.8540    2.1340   -1.0720 C   0  0  0  0  0  0  0  0  0  0  0  0
   -1.5490    1.9970   -0.2840 C   0  0  0  0  0  0  0  0  0  0  0  0
   -0.9190    0.6340   -0.5710 C   0  0  1  0  0  0  0  0  0  0  0  0
    0.4250    0.5240    0.1210 C   0  0  2  0  0  0  0  0  0  0  0  0
    1.3220    1.4860   -0.4390 O   0  0  0  0  0  0  0  0  0  0  0  0
    0.3290    0.7510    1.6410 C   0  0  0  0  0  0  0  0  0  0  0  0
    1.6540    0.1610    2.1780 C   0  0  0  0  0  0  0  0  0  0  0  0
    2.0980   -0.8740    1.1700 C   0  0  2  0  0  0  0  0  0  0  0  0
    3.4430   -0.4710    0.6230 C   0  0  0  0  0  0  0  0  0  0  0  0
    4.3060   -1.4440    0.0900 C   0  0  0  0  0  0  0  0  0  0  0  0
    5.5180   -1.0560   -0.4000 C   0  0  0  0  0  0  0  0  0  0  0  0
    5.8680    0.3060   -0.3560 C   0  0  0  0  0  0  0  0  0  0  0  0
    6.9480    0.6720   -0.7900 O   0  0  0  0  0  0  0  0  0  0  0  0
    5.0130    1.2030    0.1620 O   0  0  0  0  0  0  0  0  0  0  0  0
    3.8190    0.8250    0.6380 C   0  0  0  0  0  0  0  0  0  0  0  0
  2  1  1  6
  2 21  1  0
  3  2  1  0
  4  3  1  0
  5 16  1  0
  5  4  1  6
  6  5  1  0
  6  7  1  6
  8  6  1  0
  8  9  1  0
 10  9  1  0
 10 11  1  6
 12 10  1  0
 13 12  1  1
 13 14  1  0
 13  6  1  0
 14 15  1  0
 16 15  1  1
 16 17  1  0
 17 18  1  6
 17 19  1  0
 17  2  1  0
 19 20  1  0
 20 21  1  0
 21 22  1  6
 22 28  2  0
 23 22  1  0
 23 24  2  0
 24 25  1  0
 25 27  1  0
 25 26  2  0
 28 27  1  0
M  END
>  <KEY>
BUFALIN

>  <NAME>
Bufalin

>  <SOURCE>
rcsb-ccd:BUF

>  <SMILES>
C[C@]12CC[C@H](O)C[C@H]1CC[C@@H]1[C@@H]2CC[C@]2(C)[C@@H](c3ccc(=O)oc3)CC[C@]12O

>  <FORMULA>
C24H34O4

>  <MW>
386.53

>  <HEAVY_ATOMS>
28

>  <ROTATABLE_BONDS>
1

$$$$
