CAMPTOTHECIN
     RDKit          3D

 26 30  0  0  1  0  0  0  0  0999 V2000
    1.4360   -3.3370    0.1310 O   0  0  0  0  0  0  0  0  0  0  0  0
    1.2150   -2.1380    0.0660 C   0  0  0  0  0  0  0  0  0  0  0  0
    2.2960   -1.2340    0.0060 C   0  0  0  0  0  0  0  0  0  0  0  0
    3.6940   -1.7950    0.0040 C   0  0  0  0  0  0  0  0  0  0  0  0
    4.6610   -0.7420    0.2670 O   0  0  0  0  0  0  0  0  0  0  0  0
    4.4610    0.4430   -0.3590 C   0  0  0  0  0  0  0  0  0  0  0  0
    5.2910    0.9240   -1.0930 O   0  0  0  0  0  0  0  0  0  0  0  0
    2.0410    0.1010   -0.0490 C   0  0  0  0  0  0  0  0  0  0  0  0
    0.7120    0.5460   -0.0640 C   0  0  0  0  0  0  0  0  0  0  0  0
    3.1430    1.1300   -0.0890 C   0  0  2  0  0  0  0  0  0  0  0  0
    2.8750    2.0740   -1.1270 O   0  0  0  0  0  0  0  0  0  0  0  0
    3.2110    1.8560    1.2560 C   0  0  0  0  0  0  0  0  0  0  0  0
    4.3300    2.8990    1.2160 C   0  0  0  0  0  0  0  0  0  0  0  0
   -0.0570   -1.6970    0.0530 N   0  0  0  0  0  0  0  0  0  0  0  0
   -1.3290   -2.4300    0.1000 C   0  0  0  0  0  0  0  0  0  0  0  0
   -2.4220   -1.3930    0.0550 C   0  0  0  0  0  0  0  0  0  0  0  0
   -3.7790   -1.4830    0.0700 C   0  0  0  0  0  0  0  0  0  0  0  0
   -4.5240   -0.2880    0.0160 C   0  0  0  0  0  0  0  0  0  0  0  0
   -3.8360    0.9510   -0.0540 C   0  0  0  0  0  0  0  0  0  0  0  0
   -2.5030    0.9750   -0.0670 N   0  0  0  0  0  0  0  0  0  0  0  0
   -1.7910   -0.1400   -0.0140 C   0  0  0  0  0  0  0  0  0  0  0  0
   -0.3260   -0.3590   -0.0130 C   0  0  0  0  0  0  0  0  0  0  0  0
   -5.9280   -0.3020    0.0300 C   0  0  0  0  0  0  0  0  0  0  0  0
   -6.6140    0.8730   -0.0230 C   0  0  0  0  0  0  0  0  0  0  0  0
   -5.9410    2.0920   -0.0930 C   0  0  0  0  0  0  0  0  0  0  0  0
   -4.5820    2.1440   -0.1090 C   0  0  0  0  0  0  0  0  0  0  0  0
  1  2  2  0
  2  3  1  0
  2 14  1  0
  3  4  1  0
  3  8  2  0
  4  5  1  0
  5  6  1  0
  6  7  2  0
  6 10  1  0
  8  9  1  0
  8 10  1  0
  9 22  2  0
 10 11  1  6
 10 12  1  0
 12 13  1  0
 14 15  1  0
 14 22  1  0
 15 16  1  0
 16 17  2  0
 16 21  1  0
 17 18  1  0
 18 19  1  0
 18 23  2  0
 19 20  1  0
 19 26  2  0
 20 21  2  0
 21 22  1  0
 23 24  1  0
 24 25  2  0
 25 26  1  0
M  END
>  <KEY>
CAMPTOTHECIN

>  <NAME>
Camptothecin

>  <SOURCE>
rcsb-ccd:EHD

>  <SMILES>
CC[C@@]1(O)C(=O)OCc2c1cc1n(c2=O)Cc2cc3ccccc3nc2-1

>  <FORMULA>
C20H16N2O4

>  <MW>
348.36

>  <HEAVY_ATOMS>
26

>  <ROTATABLE_BONDS>
1

$$$$
