CAPE
     RDKit          3D

 21 22  0  0  0  0  0  0  0  0999 V2000
   -3.7600   -1.1260   -0.0020 C   0  0  0  0  0  0  0  0  0  0  0  0
   -1.4150   -0.5390   -0.0070 O   0  0  0  0  0  0  0  0  0  0  0  0
   -5.1510   -0.5470    0.0030 C   0  0  0  0  0  0  0  0  0  0  0  0
    6.7670    1.5560   -0.0180 O   0  0  0  0  0  0  0  0  0  0  0  0
   -2.7340    0.0100   -0.0020 C   0  0  0  0  0  0  0  0  0  0  0  0
    7.2520   -1.1530   -0.0140 O   0  0  0  0  0  0  0  0  0  0  0  0
   -5.7920   -0.2790   -1.1920 C   0  0  0  0  0  0  0  0  0  0  0  0
   -0.6070    1.5320   -0.0040 O   0  0  0  0  0  0  0  0  0  0  0  0
   -5.7880   -0.2890    1.2020 C   0  0  0  0  0  0  0  0  0  0  0  0
    3.3610    0.2430   -0.0170 C   0  0  0  0  0  0  0  0  0  0  0  0
   -7.0680    0.2520   -1.1880 C   0  0  0  0  0  0  0  0  0  0  0  0
   -7.0640    0.2420    1.2070 C   0  0  0  0  0  0  0  0  0  0  0  0
   -7.7030    0.5150    0.0120 C   0  0  0  0  0  0  0  0  0  0  0  0
    4.4290    1.1480   -0.0180 C   0  0  0  0  0  0  0  0  0  0  0  0
    3.6160   -1.1340   -0.0150 C   0  0  0  0  0  0  0  0  0  0  0  0
    1.9770    0.7350   -0.0130 C   0  0  0  0  0  0  0  0  0  0  0  0
    5.7270    0.6790   -0.0170 C   0  0  0  0  0  0  0  0  0  0  0  0
   -0.3880    0.3350   -0.0070 C   0  0  0  0  0  0  0  0  0  0  0  0
    5.9730   -0.6940   -0.0150 C   0  0  0  0  0  0  0  0  0  0  0  0
    4.9150   -1.5930   -0.0130 C   0  0  0  0  0  0  0  0  0  0  0  0
    0.9480   -0.1400   -0.0120 C   0  0  0  0  0  0  0  0  0  0  0  0
  1  3  1  0
  1  5  1  0
  2  5  1  0
  2 18  1  0
  3  7  2  0
  3  9  1  0
  4 17  1  0
  6 19  1  0
  7 11  1  0
  8 18  2  0
  9 12  2  0
 10 14  2  0
 10 15  1  0
 10 16  1  0
 11 13  2  0
 12 13  1  0
 14 17  1  0
 15 20  2  0
 16 21  2  0
 17 19  2  0
 18 21  1  0
 19 20  1  0
M  END
>  <KEY>
CAPE

>  <NAME>
Caffeic acid phenethyl ester

>  <SOURCE>
rcsb-ccd:QAP

>  <SMILES>
O=C(/C=C/c1ccc(O)c(O)c1)OCCc1ccccc1

>  <FORMULA>
C17H16O4

>  <MW>
284.31

>  <HEAVY_ATOMS>
21

>  <ROTATABLE_BONDS>
5

$$$$
