CAPSAICIN
     RDKit          3D

 22 22  0  0  0  0  0  0  0  0999 V2000
    3.6690   -0.2720    0.7850 C   0  0  0  0  0  0  0  0  0  0  0  0
    4.4000    0.6390    0.0450 C   0  0  0  0  0  0  0  0  0  0  0  0
    5.5650    0.2400   -0.5890 C   0  0  0  0  0  0  0  0  0  0  0  0
    5.9960   -1.0790   -0.4800 C   0  0  0  0  0  0  0  0  0  0  0  0
    5.2590   -1.9870    0.2620 C   0  0  0  0  0  0  0  0  0  0  0  0
   -8.4650   -1.8100   -1.2500 C   0  0  0  0  0  0  0  0  0  0  0  0
   -8.2800   -0.3170   -0.9690 C   0  0  0  0  0  0  0  0  0  0  0  0
   -9.5470    0.2400   -0.3170 C   0  0  0  0  0  0  0  0  0  0  0  0
   -7.1090   -0.1220   -0.0400 C   0  0  0  0  0  0  0  0  0  0  0  0
   -6.0820    0.5950   -0.4230 C   0  0  0  0  0  0  0  0  0  0  0  0
   -4.9110    0.7900    0.5060 C   0  0  0  0  0  0  0  0  0  0  0  0
   -3.6250    0.3470   -0.1940 C   0  0  0  0  0  0  0  0  0  0  0  0
   -2.4370    0.5460    0.7490 C   0  0  0  0  0  0  0  0  0  0  0  0
   -1.1500    0.1030    0.0490 C   0  0  0  0  0  0  0  0  0  0  0  0
    0.0200    0.2980    0.9780 C   0  0  0  0  0  0  0  0  0  0  0  0
   -0.1570    0.7470    2.0900 O   0  0  0  0  0  0  0  0  0  0  0  0
    1.2640   -0.0260    0.5720 N   0  0  0  0  0  0  0  0  0  0  0  0
    2.4020    0.1640    1.4750 C   0  0  0  0  0  0  0  0  0  0  0  0
    4.0940   -1.5830    0.8890 C   0  0  0  0  0  0  0  0  0  0  0  0
    7.1390   -1.4750   -1.1020 O   0  0  0  0  0  0  0  0  0  0  0  0
    6.2850    1.1340   -1.3180 O   0  0  0  0  0  0  0  0  0  0  0  0
    5.7820    2.4700   -1.3860 C   0  0  0  0  0  0  0  0  0  0  0  0
  1 18  1  0
  1  2  2  0
  3  2  1  0
  3 21  1  0
  4  3  2  0
  5 19  2  0
  5  4  1  0
  6  7  1  0
  7  8  1  0
  9  7  1  0
  9 10  2  0
 11 10  1  0
 12 11  1  0
 12 13  1  0
 14 13  1  0
 14 15  1  0
 15 16  2  0
 17 15  1  0
 17 18  1  0
 19  1  1  0
 20  4  1  0
 21 22  1  0
M  END
>  <KEY>
CAPSAICIN

>  <NAME>
Capsaicin

>  <SOURCE>
rcsb-ccd:4DY

>  <SMILES>
COc1cc(CNC(=O)CCCC/C=C/C(C)C)ccc1O

>  <FORMULA>
C18H27NO3

>  <MW>
305.42

>  <HEAVY_ATOMS>
22

>  <ROTATABLE_BONDS>
9

$$$$
