CARVACROL
     RDKit          3D

 11 11  0  0  0  0  0  0  0  0999 V2000
   -3.0290    0.0760    1.2420 C   0  0  0  0  0  0  0  0  0  0  0  0
   -2.3440   -0.5150    0.0080 C   0  0  0  0  0  0  0  0  0  0  0  0
   -3.0170    0.0220   -1.2560 C   0  0  0  0  0  0  0  0  0  0  0  0
   -0.8880   -0.1250    0.0070 C   0  0  0  0  0  0  0  0  0  0  0  0
    0.0880   -1.1010    0.0260 C   0  0  0  0  0  0  0  0  0  0  0  0
    1.4280   -0.7410    0.0250 C   0  0  0  0  0  0  0  0  0  0  0  0
    2.3910   -1.7000    0.0440 O   0  0  0  0  0  0  0  0  0  0  0  0
    1.7830    0.6000    0.0030 C   0  0  0  0  0  0  0  0  0  0  0  0
    3.2380    0.9950    0.0000 C   0  0  0  0  0  0  0  0  0  0  0  0
    0.8030    1.5730   -0.0170 C   0  0  0  0  0  0  0  0  0  0  0  0
   -0.5320    1.2110   -0.0200 C   0  0  0  0  0  0  0  0  0  0  0  0
  1  2  1  0
  2  4  1  0
  2  3  1  0
  4 11  1  0
  5  4  2  0
  5  6  1  0
  6  8  2  0
  7  6  1  0
  8 10  1  0
  8  9  1  0
 11 10  2  0
M  END
>  <KEY>
CARVACROL

>  <NAME>
Carvacrol

>  <SOURCE>
rcsb-ccd:S5V

>  <SMILES>
Cc1ccc(C(C)C)cc1O

>  <FORMULA>
C10H14O

>  <MW>
150.22

>  <HEAVY_ATOMS>
11

>  <ROTATABLE_BONDS>
1

$$$$
