CARYOPHYLLENE_OXIDE
     RDKit          3D

 16 18  0  0  1  0  0  0  0  0999 V2000
    3.0679   -1.2540   -0.3963 O   0  0  0  0  0  0  0  0  0  0  0  0
   -1.0137   -0.5164   -0.2545 C   0  0  1  0  0  0  0  0  0  0  0  0
   -2.5504   -0.2637   -0.2407 C   0  0  0  0  0  0  0  0  0  0  0  0
   -0.8972    0.8492    0.5148 C   0  0  2  0  0  0  0  0  0  0  0  0
   -2.2333    1.2422   -0.1695 C   0  0  0  0  0  0  0  0  0  0  0  0
    1.7990   -1.1145    0.2558 C   0  0  1  0  0  0  0  0  0  0  0  0
   -0.5968   -1.7867    0.4977 C   0  0  0  0  0  0  0  0  0  0  0  0
    2.1156   -0.3874   -1.0206 C   0  0  1  0  0  0  0  0  0  0  0  0
    0.8295   -2.2391    0.1636 C   0  0  0  0  0  0  0  0  0  0  0  0
    0.2344    1.7997    0.2719 C   0  0  0  0  0  0  0  0  0  0  0  0
    2.3438    1.0796   -0.9675 C   0  0  0  0  0  0  0  0  0  0  0  0
   -3.3487   -0.6364   -1.4756 C   0  0  0  0  0  0  0  0  0  0  0  0
   -3.2414   -0.7906    0.9977 C   0  0  0  0  0  0  0  0  0  0  0  0
    1.0061    1.8361   -1.0253 C   0  0  0  0  0  0  0  0  0  0  0  0
    1.9905   -0.5143    1.6092 C   0  0  0  0  0  0  0  0  0  0  0  0
    0.4946    2.6964    1.2394 C   0  0  0  0  0  0  0  0  0  0  0  0
  1  6  1  0
  1  8  1  0
  2  3  1  0
  2  4  1  0
  2  7  1  1
  3  5  1  0
  3 12  1  0
  3 13  1  0
  4  5  1  6
  4 10  1  0
  6  8  1  0
  6  9  1  0
  6 15  1  1
  7  9  1  0
  8 11  1  1
 10 14  1  0
 10 16  2  0
 11 14  1  0
M  END
>  <KEY>
CARYOPHYLLENE_OXIDE

>  <NAME>
Caryophyllene oxide

>  <SOURCE>
pubchem-3d:1742210

>  <SMILES>
C=C1CC[C@H]2O[C@]2(C)CC[C@@H]2[C@@H]1CC2(C)C

>  <FORMULA>
C15H24O

>  <MW>
220.36

>  <HEAVY_ATOMS>
16

>  <ROTATABLE_BONDS>
0

$$$$
