CELASTROL
     RDKit          3D

 33 37  0  0  1  0  0  0  0  0999 V2000
    3.5430    1.0020   -1.1220 C   0  0  0  0  0  0  0  0  0  0  0  0
    2.9180   -0.0300   -0.4970 C   0  0  0  0  0  0  0  0  0  0  0  0
    0.7970    0.6120   -1.5970 C   0  0  0  0  0  0  0  0  0  0  0  0
   -0.6690    0.2680   -1.8200 C   0  0  0  0  0  0  0  0  0  0  0  0
   -1.2960   -0.3740   -0.5790 C   0  0  2  0  0  0  0  0  0  0  0  0
   -0.5860   -1.7160   -0.3290 C   0  0  1  0  0  0  0  0  0  0  0  0
   -1.1920   -2.3570    0.9200 C   0  0  0  0  0  0  0  0  0  0  0  0
   -2.6650   -2.6660    0.6850 C   0  0  0  0  0  0  0  0  0  0  0  0
   -3.4720   -1.4370    0.2770 C   0  0  2  0  0  0  0  0  0  0  0  0
   -2.7800   -0.5840   -0.7710 C   0  0  1  0  0  0  0  0  0  0  0  0
   -3.5700    0.6680   -1.1100 C   0  0  0  0  0  0  0  0  0  0  0  0
    4.7880    1.4660   -0.6550 C   0  0  0  0  0  0  0  0  0  0  0  0
   -4.2520    1.4010    0.0290 C   0  0  1  0  0  0  0  0  0  0  0  0
   -4.8330    0.4870    1.1000 C   0  0  0  0  0  0  0  0  0  0  0  0
   -3.8610   -0.6170    1.5010 C   0  0  0  0  0  0  0  0  0  0  0  0
    5.4580   -0.8460    2.2600 C   0  0  0  0  0  0  0  0  0  0  0  0
    2.0390   -1.4200   -2.2750 C   0  0  0  0  0  0  0  0  0  0  0  0
   -0.7490   -2.6700   -1.5070 C   0  0  0  0  0  0  0  0  0  0  0  0
   -0.9840    0.5350    0.6150 C   0  0  0  0  0  0  0  0  0  0  0  0
   -4.7760   -1.9830   -0.3600 C   0  0  0  0  0  0  0  0  0  0  0  0
   -3.3800    2.4610    0.6430 C   0  0  0  0  0  0  0  0  0  0  0  0
   -5.4610    2.1540   -0.5970 C   0  0  0  0  0  0  0  0  0  0  0  0
    5.4030    0.8380    0.4530 C   0  0  0  0  0  0  0  0  0  0  0  0
    4.7770   -0.1900    1.0860 C   0  0  0  0  0  0  0  0  0  0  0  0
    3.5000   -0.6150    0.6510 C   0  0  0  0  0  0  0  0  0  0  0  0
    2.7810   -1.5730    1.3680 C   0  0  0  0  0  0  0  0  0  0  0  0
    1.4620   -1.8800    1.0120 C   0  0  0  0  0  0  0  0  0  0  0  0
    0.8750   -1.3940   -0.0900 C   0  0  0  0  0  0  0  0  0  0  0  0
    1.6260   -0.5530   -1.0770 C   0  0  1  0  0  0  0  0  0  0  0  0
    5.3360    2.4080   -1.2090 O   0  0  0  0  0  0  0  0  0  0  0  0
   -2.4680    2.9370    0.0090 O   0  0  0  0  0  0  0  0  0  0  0  0
   -3.6150    2.8790    1.8970 O   0  0  0  0  0  0  0  0  0  0  0  0
    6.6200    1.2620    0.8910 O   0  0  0  0  0  0  0  0  0  0  0  0
  1  2  2  0
  1 12  1  0
  2 25  1  0
  2 29  1  0
  3  4  1  0
  3 29  1  0
  4  5  1  0
  5  6  1  0
  5 10  1  0
  5 19  1  1
  6  7  1  0
  6 18  1  6
  6 28  1  0
  7  8  1  0
  8  9  1  0
  9 10  1  0
  9 15  1  0
  9 20  1  6
 10 11  1  1
 11 13  1  0
 12 23  1  0
 12 30  2  0
 13 14  1  0
 13 21  1  0
 13 22  1  6
 14 15  1  0
 16 24  1  0
 29 17  1  6
 21 31  2  0
 21 32  1  0
 23 24  2  0
 23 33  1  0
 24 25  1  0
 25 26  2  0
 26 27  1  0
 27 28  2  0
 28 29  1  0
M  END
>  <KEY>
CELASTROL

>  <NAME>
Celastrol

>  <SOURCE>
rcsb-ccd:AQR

>  <SMILES>
CC1=C(O)C(=O)C=C2C1=CC=C1[C@@]2(C)CC[C@@]2(C)[C@@H]3C[C@](C)(C(=O)O)CC[C@]3(C)CC[C@]12C

>  <FORMULA>
C29H38O4

>  <MW>
450.62

>  <HEAVY_ATOMS>
33

>  <ROTATABLE_BONDS>
1

$$$$
