CHLOROGENIC_ACID
     RDKit          3D

 25 26  0  0  1  0  0  0  0  0999 V2000
   -2.0690    0.1090   -0.1050 C   0  0  2  0  0  0  0  0  0  0  0  0
   -3.0710   -1.0460   -0.0580 C   0  0  0  0  0  0  0  0  0  0  0  0
   -4.4690   -0.4970    0.2330 C   0  0  2  0  0  0  0  0  0  0  0  0
   -5.4560   -1.6350    0.2800 C   0  0  0  0  0  0  0  0  0  0  0  0
    2.6520    0.5150    0.4110 C   0  0  0  0  0  0  0  0  0  0  0  0
    5.1100    0.7560    0.7000 C   0  0  0  0  0  0  0  0  0  0  0  0
    5.5370   -1.5420   -0.8130 C   0  0  0  0  0  0  0  0  0  0  0  0
    4.2490   -1.1100   -0.5820 C   0  0  0  0  0  0  0  0  0  0  0  0
   -4.8720    0.4820   -0.8720 C   0  0  0  0  0  0  0  0  0  0  0  0
   -3.8700    1.6380   -0.9190 C   0  0  2  0  0  0  0  0  0  0  0  0
   -2.4720    1.0890   -1.2100 C   0  0  1  0  0  0  0  0  0  0  0  0
   -6.5920   -1.5090    0.9830 O   0  0  0  0  0  0  0  0  0  0  0  0
   -5.2250   -2.6600   -0.3160 O   0  0  0  0  0  0  0  0  0  0  0  0
   -4.4630    0.1810    1.4910 O   0  0  0  0  0  0  0  0  0  0  0  0
   -0.7630   -0.4030   -0.3770 O   0  0  0  0  0  0  0  0  0  0  0  0
    0.2820    0.2820    0.1320 C   0  0  0  0  0  0  0  0  0  0  0  0
    0.0880    1.2870    0.7880 O   0  0  0  0  0  0  0  0  0  0  0  0
    1.6060   -0.1710   -0.0980 C   0  0  0  0  0  0  0  0  0  0  0  0
    4.0240    0.0460    0.1730 C   0  0  0  0  0  0  0  0  0  0  0  0
    6.3970    0.3130    0.4680 C   0  0  0  0  0  0  0  0  0  0  0  0
    6.6140   -0.8380   -0.2900 C   0  0  0  0  0  0  0  0  0  0  0  0
    7.8810   -1.2710   -0.5160 O   0  0  0  0  0  0  0  0  0  0  0  0
    7.4550    1.0000    0.9780 O   0  0  0  0  0  0  0  0  0  0  0  0
   -1.5360    2.1680   -1.2550 O   0  0  0  0  0  0  0  0  0  0  0  0
   -3.8640    2.3150    0.3390 O   0  0  0  0  0  0  0  0  0  0  0  0
  1 11  1  0
  2  3  1  0
  2  1  1  0
  3  9  1  0
  4  3  1  0
  4 12  1  0
  5 18  2  0
  6 19  2  0
  7  8  2  0
  9 10  1  0
 11 10  1  0
 11 24  1  1
 13  4  2  0
  3 14  1  1
  1 15  1  6
 16 15  1  0
 17 16  2  0
 18 16  1  0
 19  5  1  0
 19  8  1  0
 20  6  1  0
 20 21  2  0
 21  7  1  0
 22 21  1  0
 23 20  1  0
 10 25  1  1
M  END
>  <KEY>
CHLOROGENIC_ACID

>  <NAME>
Chlorogenic acid

>  <SOURCE>
rcsb-ccd:A1EG7

>  <SMILES>
O=C(/C=C/c1ccc(O)c(O)c1)O[C@@H]1C[C@](O)(C(=O)O)C[C@@H](O)[C@H]1O

>  <FORMULA>
C16H18O9

>  <MW>
354.31

>  <HEAVY_ATOMS>
25

>  <ROTATABLE_BONDS>
4

$$$$
