CHRYSOPHANOL
     RDKit          3D

 19 21  0  0  0  0  0  0  0  0999 V2000
    1.1506   -2.2720   -2.2941 O   0  0  0  0  0  0  0  0  0  0  0  0
   -1.0598   -1.9790   -1.0332 O   0  0  0  0  0  0  0  0  0  0  0  0
    0.7454    2.3747    1.4856 O   0  0  0  0  0  0  0  0  0  0  0  0
   -3.3298   -1.8249    0.1444 O   0  0  0  0  0  0  0  0  0  0  0  0
    1.1928    0.6551   -0.0508 C   0  0  0  0  0  0  0  0  0  0  0  0
    0.7208   -0.4821   -0.7097 C   0  0  0  0  0  0  0  0  0  0  0  0
   -1.5074   -0.2593    0.5020 C   0  0  0  0  0  0  0  0  0  0  0  0
   -1.0354    0.8781    1.1606 C   0  0  0  0  0  0  0  0  0  0  0  0
   -0.6465   -0.9810   -0.4570 C   0  0  0  0  0  0  0  0  0  0  0  0
    0.3318    1.3770    0.9082 C   0  0  0  0  0  0  0  0  0  0  0  0
    2.4911    1.1170   -0.2984 C   0  0  0  0  0  0  0  0  0  0  0  0
    1.5468   -1.1572   -1.6163 C   0  0  0  0  0  0  0  0  0  0  0  0
    3.3110    0.4411   -1.2026 C   0  0  0  0  0  0  0  0  0  0  0  0
   -2.8052   -0.7218    0.7504 C   0  0  0  0  0  0  0  0  0  0  0  0
    2.8398   -0.6934   -1.8601 C   0  0  0  0  0  0  0  0  0  0  0  0
   -1.8614    1.5529    2.0676 C   0  0  0  0  0  0  0  0  0  0  0  0
   -3.6249   -0.0465    1.6552 C   0  0  0  0  0  0  0  0  0  0  0  0
   -3.1539    1.0884    2.3124 C   0  0  0  0  0  0  0  0  0  0  0  0
    4.6943    0.9334   -1.4645 C   0  0  0  0  0  0  0  0  0  0  0  0
  1 12  1  0
  2  9  2  0
  3 10  2  0
  4 14  1  0
  5  6  1  0
  5 10  1  0
  5 11  2  0
  6  9  1  0
  6 12  2  0
  7  8  1  0
  7  9  1  0
  7 14  2  0
  8 10  1  0
  8 16  2  0
 11 13  1  0
 12 15  1  0
 13 15  2  0
 13 19  1  0
 14 17  1  0
 16 18  1  0
 17 18  2  0
M  END
>  <KEY>
CHRYSOPHANOL

>  <NAME>
Chrysophanol

>  <SOURCE>
pubchem-3d:10208

>  <SMILES>
Cc1cc(O)c2c(c1)C(=O)c1cccc(O)c1C2=O

>  <FORMULA>
C15H10O4

>  <MW>
254.24

>  <HEAVY_ATOMS>
19

>  <ROTATABLE_BONDS>
0

$$$$
