CHRYSIN
     RDKit          3D

 19 21  0  0  0  0  0  0  0  0999 V2000
   -1.0795   -0.1567    0.3944 C   0  0  0  0  0  0  0  0  0  0  0  0
   -1.0105   -1.2145   -0.4563 C   0  0  0  0  0  0  0  0  0  0  0  0
    0.1812   -1.4450   -1.1874 C   0  0  0  0  0  0  0  0  0  0  0  0
    1.2968   -0.5071   -0.9790 C   0  0  0  0  0  0  0  0  0  0  0  0
    2.5104   -0.6570   -1.6607 C   0  0  0  0  0  0  0  0  0  0  0  0
    3.5329    0.2470   -1.4364 C   0  0  0  0  0  0  0  0  0  0  0  0
    3.3553    1.2957   -0.5420 C   0  0  0  0  0  0  0  0  0  0  0  0
    2.1559    1.4506    0.1369 C   0  0  0  0  0  0  0  0  0  0  0  0
    1.1194    0.5547   -0.0745 C   0  0  0  0  0  0  0  0  0  0  0  0
   -0.0555    0.6919    0.5766 O   0  0  0  0  0  0  0  0  0  0  0  0
    0.2787   -2.3848   -1.9603 O   0  0  0  0  0  0  0  0  0  0  0  0
    2.6829   -1.6818   -2.5329 O   0  0  0  0  0  0  0  0  0  0  0  0
    4.3659    2.1776   -0.3292 O   0  0  0  0  0  0  0  0  0  0  0  0
   -2.4358    1.1475    2.0265 C   0  0  0  0  0  0  0  0  0  0  0  0
   -3.6086    1.3545    2.7224 C   0  0  0  0  0  0  0  0  0  0  0  0
   -4.6808    0.4971    2.5479 C   0  0  0  0  0  0  0  0  0  0  0  0
   -4.5844   -0.5722    1.6755 C   0  0  0  0  0  0  0  0  0  0  0  0
   -3.4175   -0.7908    0.9718 C   0  0  0  0  0  0  0  0  0  0  0  0
   -2.3319    0.0701    1.1443 C   0  0  0  0  0  0  0  0  0  0  0  0
  1  2  2  0
  1 10  1  0
  1 19  1  0
  2  3  1  0
  3  4  1  0
  3 11  2  0
  4  5  2  0
  4  9  1  0
  5  6  1  0
  5 12  1  0
  6  7  2  0
  7  8  1  0
  7 13  1  0
  8  9  2  0
  9 10  1  0
 14 15  1  0
 14 19  2  0
 15 16  2  0
 16 17  1  0
 17 18  2  0
 18 19  1  0
M  END
>  <KEY>
CHRYSIN

>  <NAME>
Chrysin

>  <SOURCE>
rcsb-ccd:57D

>  <SMILES>
O=c1cc(-c2ccccc2)oc2cc(O)cc(O)c12

>  <FORMULA>
C15H10O4

>  <MW>
254.24

>  <HEAVY_ATOMS>
19

>  <ROTATABLE_BONDS>
1

$$$$
