CINNAMALDEHYDE
     RDKit          3D

 10 10  0  0  0  0  0  0  0  0999 V2000
   -1.5877    1.1670    1.6446 C   0  0  0  0  0  0  0  0  0  0  0  0
   -2.7409    0.4016    1.5898 C   0  0  0  0  0  0  0  0  0  0  0  0
   -2.8064   -0.7061    0.7631 C   0  0  0  0  0  0  0  0  0  0  0  0
   -1.7220   -1.0567   -0.0134 C   0  0  0  0  0  0  0  0  0  0  0  0
   -0.5539   -0.2883    0.0355 C   0  0  0  0  0  0  0  0  0  0  0  0
   -0.4969    0.8329    0.8698 C   0  0  0  0  0  0  0  0  0  0  0  0
    0.6073   -0.6553   -0.7895 C   0  0  0  0  0  0  0  0  0  0  0  0
    1.7351    0.0901   -0.7395 C   0  0  0  0  0  0  0  0  0  0  0  0
    2.8482   -0.2613   -1.5300 C   0  0  0  0  0  0  0  0  0  0  0  0
    3.8614    0.4074   -1.4845 O   0  0  0  0  0  0  0  0  0  0  0  0
  1  2  2  0
  2  3  1  0
  4  3  2  0
  5  4  1  0
  6  5  2  0
  6  1  1  0
  7  8  2  0
  7  5  1  0
  9  8  1  0
 10  9  2  0
M  END
>  <KEY>
CINNAMALDEHYDE

>  <NAME>
Cinnamaldehyde

>  <SOURCE>
rcsb-ccd:9Y6

>  <SMILES>
O=C/C=C/c1ccccc1

>  <FORMULA>
C9H8O

>  <MW>
132.16

>  <HEAVY_ATOMS>
10

>  <ROTATABLE_BONDS>
2

$$$$
