COLCHICINE
     RDKit          3D

 29 31  0  0  1  0  0  0  0  0999 V2000
   -1.2250    2.4910   -2.2540 O   0  0  0  0  0  0  0  0  0  0  0  0
   -1.8310    3.1570   -1.4420 C   0  0  0  0  0  0  0  0  0  0  0  0
   -2.8390    4.1770   -1.9050 C   0  0  0  0  0  0  0  0  0  0  0  0
   -1.6080    2.9800   -0.1240 N   0  0  0  0  0  0  0  0  0  0  0  0
   -0.6320    1.9850    0.3260 C   0  0  2  0  0  0  0  0  0  0  0  0
   -1.3070    0.6310    0.4020 C   0  0  0  0  0  0  0  0  0  0  0  0
   -2.6490    0.6370    0.4780 C   0  0  0  0  0  0  0  0  0  0  0  0
   -0.0760    2.4110    1.6700 C   0  0  0  0  0  0  0  0  0  0  0  0
    0.6610    1.2610    2.3500 C   0  0  0  0  0  0  0  0  0  0  0  0
    1.5390    0.5570    1.3470 C   0  0  0  0  0  0  0  0  0  0  0  0
    2.9020    0.7670    1.3520 C   0  0  0  0  0  0  0  0  0  0  0  0
    3.7110    0.1090    0.4330 C   0  0  0  0  0  0  0  0  0  0  0  0
    3.1530   -0.7640   -0.4950 C   0  0  0  0  0  0  0  0  0  0  0  0
    1.7800   -0.9770   -0.5080 C   0  0  0  0  0  0  0  0  0  0  0  0
    1.2270   -1.8290   -1.4110 O   0  0  0  0  0  0  0  0  0  0  0  0
    0.9270   -1.2980   -2.7030 C   0  0  0  0  0  0  0  0  0  0  0  0
    3.9510   -1.4080   -1.3890 O   0  0  0  0  0  0  0  0  0  0  0  0
    4.4780   -2.6760   -0.9930 C   0  0  0  0  0  0  0  0  0  0  0  0
    5.0530    0.3200    0.4410 O   0  0  0  0  0  0  0  0  0  0  0  0
    5.5620    1.2290    1.4190 C   0  0  0  0  0  0  0  0  0  0  0  0
    0.9730   -0.3070    0.4160 C   0  0  0  0  0  0  0  0  0  0  0  0
   -0.5060   -0.5120    0.3900 C   0  0  0  0  0  0  0  0  0  0  0  0
   -0.9480   -1.8100    0.3610 C   0  0  0  0  0  0  0  0  0  0  0  0
   -2.1790   -2.3560    0.3780 C   0  0  0  0  0  0  0  0  0  0  0  0
   -3.3860   -1.7350    0.4590 C   0  0  0  0  0  0  0  0  0  0  0  0
   -3.5820   -0.3600    0.5350 C   0  0  0  0  0  0  0  0  0  0  0  0
   -4.7420    0.0040    0.6700 O   0  0  0  0  0  0  0  0  0  0  0  0
   -4.4900   -2.5210    0.4670 O   0  0  0  0  0  0  0  0  0  0  0  0
   -4.2820   -3.9320    0.3890 C   0  0  0  0  0  0  0  0  0  0  0  0
  1  2  2  0
  2  3  1  0
  2  4  1  0
  5  4  1  1
  5  6  1  0
  5  8  1  0
  6  7  2  0
  6 22  1  0
  7 26  1  0
  8  9  1  0
  9 10  1  0
 10 11  2  0
 10 21  1  0
 11 12  1  0
 12 13  2  0
 12 19  1  0
 13 14  1  0
 13 17  1  0
 14 15  1  0
 14 21  2  0
 15 16  1  0
 17 18  1  0
 19 20  1  0
 21 22  1  0
 22 23  2  0
 23 24  1  0
 24 25  2  0
 25 26  1  0
 25 28  1  0
 26 27  2  0
 28 29  1  0
M  END
>  <KEY>
COLCHICINE

>  <NAME>
Colchicine

>  <SOURCE>
rcsb-ccd:LOC

>  <SMILES>
COc1cc2c(c(OC)c1OC)-c1ccc(OC)c(=O)cc1[C@@H](NC(C)=O)CC2

>  <FORMULA>
C22H25NO6

>  <MW>
399.44

>  <HEAVY_ATOMS>
29

>  <ROTATABLE_BONDS>
5

$$$$
