COMBRETASTATIN_A4
     RDKit          3D

 23 24  0  0  0  0  0  0  0  0999 V2000
   -2.3200    0.8900    0.0440 C   0  0  0  0  0  0  0  0  0  0  0  0
   -1.1400    0.8780    0.7810 C   0  0  0  0  0  0  0  0  0  0  0  0
   -0.5260   -0.3240    1.0880 C   0  0  0  0  0  0  0  0  0  0  0  0
   -4.5060   -1.5410   -1.6150 C   0  0  0  0  0  0  0  0  0  0  0  0
   -3.8810    2.5660    0.6890 C   0  0  0  0  0  0  0  0  0  0  0  0
    0.5610    1.9590    2.0450 C   0  0  0  0  0  0  0  0  0  0  0  0
   -2.8880   -0.3050   -0.3860 C   0  0  0  0  0  0  0  0  0  0  0  0
    5.2910    1.4850   -0.5060 C   0  0  0  0  0  0  0  0  0  0  0  0
    3.9970    1.2950   -1.0820 O   0  0  0  0  0  0  0  0  0  0  0  0
    3.2440    0.2780   -0.5860 C   0  0  0  0  0  0  0  0  0  0  0  0
    2.0170   -0.0290   -1.1730 C   0  0  0  0  0  0  0  0  0  0  0  0
    1.2500   -1.0620   -0.6700 C   0  0  0  0  0  0  0  0  0  0  0  0
    1.5750    0.6910   -2.2390 O   0  0  0  0  0  0  0  0  0  0  0  0
    3.7010   -0.4570    0.4980 C   0  0  0  0  0  0  0  0  0  0  0  0
    2.9440   -1.4930    1.0020 C   0  0  0  0  0  0  0  0  0  0  0  0
    1.7070   -1.7980    0.4270 C   0  0  0  0  0  0  0  0  0  0  0  0
    0.8960   -2.9050    0.9640 C   0  0  0  0  0  0  0  0  0  0  0  0
   -0.4440   -2.8070    0.9830 C   0  0  0  0  0  0  0  0  0  0  0  0
   -1.0940   -1.5260    0.6570 C   0  0  0  0  0  0  0  0  0  0  0  0
   -2.2800   -1.5100   -0.0820 C   0  0  0  0  0  0  0  0  0  0  0  0
   -4.0420   -0.2890   -1.1050 O   0  0  0  0  0  0  0  0  0  0  0  0
   -2.9240    2.0730   -0.2510 O   0  0  0  0  0  0  0  0  0  0  0  0
   -0.5880    2.0480    1.1990 O   0  0  0  0  0  0  0  0  0  0  0  0
  1  7  2  0
  2  1  1  0
  2  3  2  0
  3 19  1  0
  5 22  1  0
  6 23  1  0
  7 21  1  0
  7 20  1  0
  9  8  1  0
 10 11  2  0
 10  9  1  0
 11 13  1  0
 12 11  1  0
 14 10  1  0
 15 16  1  0
 15 14  2  0
 16 12  2  0
 17 16  1  0
 18 17  2  0
 19 20  2  0
 19 18  1  0
 21  4  1  0
 22  1  1  0
 23  2  1  0
M  END
>  <KEY>
COMBRETASTATIN_A4

>  <NAME>
Combretastatin A4

>  <SOURCE>
rcsb-ccd:7BA

>  <SMILES>
COc1ccc(/C=C\c2cc(OC)c(OC)c(OC)c2)cc1O

>  <FORMULA>
C18H20O5

>  <MW>
316.35

>  <HEAVY_ATOMS>
23

>  <ROTATABLE_BONDS>
6

$$$$
