COROSOLIC_ACID
     RDKit          3D

 34 38  0  0  1  0  0  0  0  0999 V2000
   -6.9412   -0.9213    0.3318 O   0  0  0  0  0  0  0  0  0  0  0  0
   -5.3583   -2.8878   -0.9256 O   0  0  0  0  0  0  0  0  0  0  0  0
    4.3454    2.9502   -0.9148 O   0  0  0  0  0  0  0  0  0  0  0  0
    3.0830    1.5608   -2.2076 O   0  0  0  0  0  0  0  0  0  0  0  0
   -0.4339    0.9548    0.1770 C   0  0  2  0  0  0  0  0  0  0  0  0
   -1.2306   -0.2740   -0.4058 C   0  0  1  0  0  0  0  0  0  0  0  0
   -2.7986   -0.0864   -0.6495 C   0  0  2  0  0  0  0  0  0  0  0  0
    1.0304    0.4220    0.6934 C   0  0  1  0  0  0  0  0  0  0  0  0
   -3.4108    0.5028    0.6733 C   0  0  1  0  0  0  0  0  0  0  0  0
   -1.2392    1.6087    1.3339 C   0  0  0  0  0  0  0  0  0  0  0  0
    1.7250   -0.3933   -0.4204 C   0  0  0  0  0  0  0  0  0  0  0  0
   -2.7231    1.8350    1.0381 C   0  0  0  0  0  0  0  0  0  0  0  0
   -4.9824    0.5136    0.7722 C   0  0  0  0  0  0  0  0  0  0  0  0
    3.2552   -0.5650   -0.4233 C   0  0  1  0  0  0  0  0  0  0  0  0
   -0.4687   -0.8985   -1.5950 C   0  0  0  0  0  0  0  0  0  0  0  0
   -3.4282   -1.4907   -0.8796 C   0  0  0  0  0  0  0  0  0  0  0  0
    1.9072    1.6270    1.1560 C   0  0  0  0  0  0  0  0  0  0  0  0
    3.9609    0.7724   -0.0795 C   0  0  1  0  0  0  0  0  0  0  0  0
   -0.2392    2.0498   -0.9182 C   0  0  0  0  0  0  0  0  0  0  0  0
    3.4118    1.3489    1.2377 C   0  0  0  0  0  0  0  0  0  0  0  0
   -5.5155   -0.9170    0.4521 C   0  0  2  0  0  0  0  0  0  0  0  0
    1.0188   -0.9486   -1.4256 C   0  0  0  0  0  0  0  0  0  0  0  0
   -3.1156    0.7728   -1.8992 C   0  0  0  0  0  0  0  0  0  0  0  0
   -4.9560   -1.5160   -0.8383 C   0  0  2  0  0  0  0  0  0  0  0  0
    0.8953   -0.5292    1.9200 C   0  0  0  0  0  0  0  0  0  0  0  0
    3.7713   -1.7720    0.4374 C   0  0  2  0  0  0  0  0  0  0  0  0
    5.4920    0.6109   -0.0230 C   0  0  0  0  0  0  0  0  0  0  0  0
    5.3204   -1.8722    0.3789 C   0  0  1  0  0  0  0  0  0  0  0  0
   -5.6569    1.5789   -0.1158 C   0  0  0  0  0  0  0  0  0  0  0  0
   -5.4022    0.8493    2.2324 C   0  0  0  0  0  0  0  0  0  0  0  0
    5.9552   -0.5542    0.8356 C   0  0  0  0  0  0  0  0  0  0  0  0
    3.7304    1.7749   -1.1936 C   0  0  0  0  0  0  0  0  0  0  0  0
    3.1138   -3.0942    0.0097 C   0  0  0  0  0  0  0  0  0  0  0  0
    5.8844   -3.0122    1.2352 C   0  0  0  0  0  0  0  0  0  0  0  0
 21  1  1  6
 24  2  1  1
  3 32  1  0
  4 32  2  0
  5  6  1  0
  5  8  1  0
  5 10  1  0
  5 19  1  6
  6  7  1  0
  6 15  1  6
  7  9  1  0
  7 16  1  0
  7 23  1  6
  8 11  1  0
  8 17  1  0
  8 25  1  1
  9 12  1  6
  9 13  1  0
 10 12  1  0
 14 11  1  1
 11 22  2  0
 13 21  1  0
 13 29  1  0
 13 30  1  0
 14 18  1  0
 14 26  1  0
 15 22  1  0
 16 24  1  0
 17 20  1  0
 18 20  1  0
 18 27  1  0
 18 32  1  6
 21 24  1  0
 26 28  1  0
 26 33  1  6
 27 31  1  0
 28 31  1  0
 28 34  1  1
M  END
>  <KEY>
COROSOLIC_ACID

>  <NAME>
Corosolic acid

>  <SOURCE>
pubchem-3d:6918774

>  <SMILES>
C[C@H]1[C@H](C)CC[C@]2(C(=O)O)CC[C@]3(C)C(=CC[C@@H]4[C@@]5(C)C[C@@H](O)[C@H](O)C(C)(C)[C@@H]5CC[C@]43C)[C@H]12

>  <FORMULA>
C30H48O4

>  <MW>
472.71

>  <HEAVY_ATOMS>
34

>  <ROTATABLE_BONDS>
1

$$$$
