COSTUNOLIDE
     RDKit          3D

 17 18  0  0  1  0  0  0  0  0999 V2000
    1.8975    1.5080    0.0357 O   0  0  0  0  0  0  0  0  0  0  0  0
    4.1815    1.2660    0.1044 O   0  0  0  0  0  0  0  0  0  0  0  0
    1.2093   -0.7442    0.3501 C   0  0  1  0  0  0  0  0  0  0  0  0
    0.7884    0.6275   -0.2150 C   0  0  1  0  0  0  0  0  0  0  0  0
    0.5103   -1.9818   -0.2642 C   0  0  0  0  0  0  0  0  0  0  0  0
    2.6857   -0.6350    0.1025 C   0  0  0  0  0  0  0  0  0  0  0  0
   -0.8457   -2.3933    0.3609 C   0  0  0  0  0  0  0  0  0  0  0  0
   -0.4182    1.1901    0.4739 C   0  0  0  0  0  0  0  0  0  0  0  0
   -2.0321   -1.5397   -0.0330 C   0  0  0  0  0  0  0  0  0  0  0  0
   -1.5347    1.6820   -0.1016 C   0  0  0  0  0  0  0  0  0  0  0  0
    3.0585    0.7961    0.0737 C   0  0  0  0  0  0  0  0  0  0  0  0
   -2.8106    1.7239    0.7262 C   0  0  0  0  0  0  0  0  0  0  0  0
   -3.5815    0.3816    0.6312 C   0  0  0  0  0  0  0  0  0  0  0  0
   -2.6551   -0.7833    0.8955 C   0  0  0  0  0  0  0  0  0  0  0  0
    3.6134   -1.5761   -0.0939 C   0  0  0  0  0  0  0  0  0  0  0  0
   -2.3821   -1.5639   -1.4959 C   0  0  0  0  0  0  0  0  0  0  0  0
   -1.6845    2.0422   -1.5506 C   0  0  0  0  0  0  0  0  0  0  0  0
  4  1  1  1
  1 11  1  0
  2 11  2  0
  3  4  1  0
  3  5  1  6
  3  6  1  0
  4  8  1  0
  5  7  1  0
  6 11  1  0
  6 15  2  0
  7  9  1  0
  8 10  2  0
  9 14  2  0
  9 16  1  0
 10 12  1  0
 10 17  1  0
 12 13  1  0
 13 14  1  0
M  END
>  <KEY>
COSTUNOLIDE

>  <NAME>
Costunolide

>  <SOURCE>
pubchem-3d:5281437

>  <SMILES>
C=C1C(=O)O[C@@H]2/C=C(\C)CC/C=C(\C)CC[C@@H]12

>  <FORMULA>
C15H20O2

>  <MW>
232.32

>  <HEAVY_ATOMS>
17

>  <ROTATABLE_BONDS>
0

$$$$
