CRYPTOTANSHINONE
     RDKit          3D

 22 25  0  0  1  0  0  0  0  0999 V2000
    2.6225    2.2197    0.1458 O   0  0  0  0  0  0  0  0  0  0  0  0
    0.4923   -2.7324   -0.3709 O   0  0  0  0  0  0  0  0  0  0  0  0
    3.0302   -2.4111    0.3383 O   0  0  0  0  0  0  0  0  0  0  0  0
   -3.8037    0.5847   -0.0897 C   0  0  0  0  0  0  0  0  0  0  0  0
   -4.3227   -0.8322   -0.4290 C   0  0  0  0  0  0  0  0  0  0  0  0
   -2.2678    0.6334   -0.0408 C   0  0  0  0  0  0  0  0  0  0  0  0
   -1.4701   -0.5396   -0.0047 C   0  0  0  0  0  0  0  0  0  0  0  0
   -3.6042   -1.9000    0.3723 C   0  0  0  0  0  0  0  0  0  0  0  0
   -2.1256   -1.9045    0.0123 C   0  0  0  0  0  0  0  0  0  0  0  0
   -0.0528   -0.4135   -0.0043 C   0  0  0  0  0  0  0  0  0  0  0  0
   -4.3695    1.5295   -1.1767 C   0  0  0  0  0  0  0  0  0  0  0  0
   -4.3617    1.0305    1.2803 C   0  0  0  0  0  0  0  0  0  0  0  0
    0.5606    0.8570    0.0446 C   0  0  0  0  0  0  0  0  0  0  0  0
   -1.6278    1.8860    0.0076 C   0  0  0  0  0  0  0  0  0  0  0  0
    2.0159    0.9725    0.0884 C   0  0  0  0  0  0  0  0  0  0  0  0
    2.8436   -0.0616    0.1442 C   0  0  0  0  0  0  0  0  0  0  0  0
    4.2381    0.4105    0.2673 C   0  0  2  0  0  0  0  0  0  0  0  0
   -0.2408    1.9978    0.0556 C   0  0  0  0  0  0  0  0  0  0  0  0
    0.8564   -1.6026   -0.0842 C   0  0  0  0  0  0  0  0  0  0  0  0
    4.0279    1.9107   -0.0022 C   0  0  0  0  0  0  0  0  0  0  0  0
    2.3338   -1.4260    0.1563 C   0  0  0  0  0  0  0  0  0  0  0  0
    5.2256   -0.2087   -0.7105 C   0  0  0  0  0  0  0  0  0  0  0  0
  1 15  1  0
  1 20  1  0
  2 19  2  0
  3 21  2  0
  4  5  1  0
  4  6  1  0
  4 11  1  0
  4 12  1  0
  5  8  1  0
  6  7  2  0
  6 14  1  0
  7  9  1  0
  7 10  1  0
  8  9  1  0
 10 13  2  0
 10 19  1  0
 13 15  1  0
 13 18  1  0
 14 18  2  0
 15 16  2  0
 16 17  1  0
 16 21  1  0
 17 20  1  0
 17 22  1  6
 19 21  1  0
M  END
>  <KEY>
CRYPTOTANSHINONE

>  <NAME>
Cryptotanshinone

>  <SOURCE>
pubchem-3d:160254

>  <SMILES>
C[C@H]1COC2=C1C(=O)C(=O)c1c2ccc2c1CCCC2(C)C

>  <FORMULA>
C19H20O3

>  <MW>
296.37

>  <HEAVY_ATOMS>
22

>  <ROTATABLE_BONDS>
0

$$$$
