CUCURBITACIN_B
     RDKit          3D

 40 43  0  0  1  0  0  0  0  0999 V2000
    2.1122   -0.7962   -2.4823 O   0  0  0  0  0  0  0  0  0  0  0  0
   -2.4178   -1.6151    2.8608 O   0  0  0  0  0  0  0  0  0  0  0  0
    2.4641   -3.2275    0.5034 O   0  0  0  0  0  0  0  0  0  0  0  0
   -6.2023    2.0519    2.4658 O   0  0  0  0  0  0  0  0  0  0  0  0
    4.6987   -2.2058   -0.4019 O   0  0  0  0  0  0  0  0  0  0  0  0
   -5.2735    3.8031    0.4116 O   0  0  0  0  0  0  0  0  0  0  0  0
    6.9775    2.1201   -0.1107 O   0  0  0  0  0  0  0  0  0  0  0  0
    5.9683    1.4843    1.8676 O   0  0  0  0  0  0  0  0  0  0  0  0
   -0.9069   -1.2041   -1.0077 C   0  0  2  0  0  0  0  0  0  0  0  0
   -0.0609   -1.6503    0.2397 C   0  0  1  0  0  0  0  0  0  0  0  0
   -2.3643   -1.7381   -0.8407 C   0  0  1  0  0  0  0  0  0  0  0  0
   -3.0567   -1.3283    0.5190 C   0  0  2  0  0  0  0  0  0  0  0  0
    1.3637   -1.2534   -0.2167 C   0  0  2  0  0  0  0  0  0  0  0  0
   -0.0821   -1.8429   -2.1552 C   0  0  0  0  0  0  0  0  0  0  0  0
    1.3940   -1.7327   -1.6920 C   0  0  1  0  0  0  0  0  0  0  0  0
   -0.5996   -0.9412    1.4788 C   0  0  0  0  0  0  0  0  0  0  0  0
   -3.6906    0.1120    0.4696 C   0  0  1  0  0  0  0  0  0  0  0  0
   -2.0511   -1.3488    1.7122 C   0  0  0  0  0  0  0  0  0  0  0  0
   -3.2849   -1.4785   -2.0475 C   0  0  0  0  0  0  0  0  0  0  0  0
   -0.8879    0.3294   -1.2964 C   0  0  0  0  0  0  0  0  0  0  0  0
   -0.0860   -3.1875    0.5384 C   0  0  0  0  0  0  0  0  0  0  0  0
    2.5328   -1.8045    0.5949 C   0  0  1  0  0  0  0  0  0  0  0  0
   -4.3180    0.5026   -0.8614 C   0  0  0  0  0  0  0  0  0  0  0  0
   -4.1414   -2.4050    0.8079 C   0  0  0  0  0  0  0  0  0  0  0  0
   -4.7434    0.3519    1.5667 C   0  0  0  0  0  0  0  0  0  0  0  0
   -4.1332   -0.2528   -1.9608 C   0  0  0  0  0  0  0  0  0  0  0  0
   -5.1841    1.7709   -0.9167 C   0  0  0  0  0  0  0  0  0  0  0  0
   -5.0195    1.8387    1.7185 C   0  0  1  0  0  0  0  0  0  0  0  0
    2.4260   -1.4182    2.0683 C   0  0  0  0  0  0  0  0  0  0  0  0
    3.8768   -1.3774   -0.0104 C   0  0  0  0  0  0  0  0  0  0  0  0
   -5.1351    2.5757    0.3996 C   0  0  0  0  0  0  0  0  0  0  0  0
   -4.6976    2.7083   -2.0467 C   0  0  0  0  0  0  0  0  0  0  0  0
   -6.6623    1.4143   -1.1601 C   0  0  0  0  0  0  0  0  0  0  0  0
    4.1555    0.0882   -0.1106 C   0  0  0  0  0  0  0  0  0  0  0  0
    5.3086    0.5318   -0.6322 C   0  0  0  0  0  0  0  0  0  0  0  0
    5.7292    1.9763   -0.7989 C   0  0  0  0  0  0  0  0  0  0  0  0
    5.9729    2.2649   -2.2842 C   0  0  0  0  0  0  0  0  0  0  0  0
    4.7612    3.0138   -0.2190 C   0  0  0  0  0  0  0  0  0  0  0  0
    6.9454    1.8394    1.2225 C   0  0  0  0  0  0  0  0  0  0  0  0
    8.3123    2.0309    1.8065 C   0  0  0  0  0  0  0  0  0  0  0  0
 15  1  1  6
  2 18  2  0
  3 22  1  0
 28  4  1  1
  5 30  2  0
  6 31  2  0
  7 36  1  0
  7 39  1  0
  8 39  2  0
  9 10  1  0
  9 11  1  0
  9 14  1  0
  9 20  1  6
 10 13  1  0
 10 16  1  0
 10 21  1  1
 11 12  1  0
 11 19  1  6
 12 17  1  0
 12 18  1  0
 12 24  1  1
 13 15  1  0
 13 22  1  1
 14 15  1  0
 16 18  1  0
 17 23  1  0
 17 25  1  1
 19 26  1  0
 22 29  1  1
 22 30  1  0
 23 26  2  0
 23 27  1  0
 25 28  1  0
 27 31  1  0
 27 32  1  0
 27 33  1  0
 28 31  1  0
 30 34  1  0
 34 35  2  0
 35 36  1  0
 36 37  1  0
 36 38  1  0
 39 40  1  0
M  END
>  <KEY>
CUCURBITACIN_B

>  <NAME>
Cucurbitacin B

>  <SOURCE>
pubchem-3d:5281316

>  <SMILES>
CC(=O)OC(C)(C)/C=C/C(=O)[C@](C)(O)[C@H]1[C@H](O)C[C@@]2(C)[C@@H]3CC=C4[C@@H](C[C@H](O)C(=O)C4(C)C)[C@]3(C)C(=O)C[C@]12C

>  <FORMULA>
C32H46O8

>  <MW>
558.71

>  <HEAVY_ATOMS>
40

>  <ROTATABLE_BONDS>
5

$$$$
