CURCUMIN
     RDKit          3D

 27 28  0  0  0  0  0  0  0  0999 V2000
    1.3937    1.2842    0.3409 O   0  0  0  0  0  0  0  0  0  0  0  0
    1.1989    0.2965   -0.3394 C   0  0  0  0  0  0  0  0  0  0  0  0
    2.2149   -0.1855   -1.1869 C   0  0  0  0  0  0  0  0  0  0  0  0
    3.4084    0.4554   -1.2470 C   0  0  0  0  0  0  0  0  0  0  0  0
    4.4673   -0.0470   -2.1302 C   0  0  0  0  0  0  0  0  0  0  0  0
    5.7007    0.6126   -2.1944 C   0  0  0  0  0  0  0  0  0  0  0  0
    6.6928    0.1357   -3.0269 C   0  0  0  0  0  0  0  0  0  0  0  0
    7.8917    0.7732   -3.0920 O   0  0  0  0  0  0  0  0  0  0  0  0
    8.0549    1.9325   -2.2711 C   0  0  0  0  0  0  0  0  0  0  0  0
    6.4661   -1.0024   -3.8018 C   0  0  0  0  0  0  0  0  0  0  0  0
    7.4437   -1.4704   -4.6205 O   0  0  0  0  0  0  0  0  0  0  0  0
    5.2433   -1.6585   -3.7385 C   0  0  0  0  0  0  0  0  0  0  0  0
    4.2496   -1.1926   -2.9071 C   0  0  0  0  0  0  0  0  0  0  0  0
   -0.1271   -0.4156   -0.2726 C   0  0  0  0  0  0  0  0  0  0  0  0
   -1.0282    0.2924    0.7054 C   0  0  0  0  0  0  0  0  0  0  0  0
   -0.6326    1.2807    1.2912 O   0  0  0  0  0  0  0  0  0  0  0  0
   -2.3298   -0.1906    0.9405 C   0  0  0  0  0  0  0  0  0  0  0  0
   -3.1409    0.4468    1.8206 C   0  0  0  0  0  0  0  0  0  0  0  0
   -4.4975   -0.0568    2.0655 C   0  0  0  0  0  0  0  0  0  0  0  0
   -5.3395    0.6029    2.9691 C   0  0  0  0  0  0  0  0  0  0  0  0
   -6.6146    0.1253    3.1947 C   0  0  0  0  0  0  0  0  0  0  0  0
   -7.4344    0.7631    4.0725 O   0  0  0  0  0  0  0  0  0  0  0  0
   -6.9111    1.9222    4.7240 C   0  0  0  0  0  0  0  0  0  0  0  0
   -7.0624   -1.0127    2.5230 C   0  0  0  0  0  0  0  0  0  0  0  0
   -8.3174   -1.4805    2.7468 O   0  0  0  0  0  0  0  0  0  0  0  0
   -6.2283   -1.6683    1.6262 C   0  0  0  0  0  0  0  0  0  0  0  0
   -4.9564   -1.1960    1.3912 C   0  0  0  0  0  0  0  0  0  0  0  0
  2 14  1  0
  2  1  2  0
  3  2  1  0
  4  3  2  0
  5  4  1  0
  6  5  2  0
  7  6  1  0
  8  7  1  0
  9  8  1  0
 10  7  2  0
 10 12  1  0
 11 10  1  0
 12 13  2  0
 13  5  1  0
 14 15  1  0
 15 16  2  0
 15 17  1  0
 17 18  2  0
 18 19  1  0
 19 27  1  0
 20 21  1  0
 20 19  2  0
 21 24  2  0
 22 21  1  0
 23 22  1  0
 24 25  1  0
 24 26  1  0
 27 26  2  0
M  END
>  <KEY>
CURCUMIN

>  <NAME>
Curcumin

>  <SOURCE>
rcsb-ccd:CC9

>  <SMILES>
COc1cc(/C=C/C(=O)CC(=O)/C=C/c2ccc(O)c(OC)c2)ccc1O

>  <FORMULA>
C21H20O6

>  <MW>
368.39

>  <HEAVY_ATOMS>
27

>  <ROTATABLE_BONDS>
8

$$$$
