CYANIDIN
     RDKit          3D

 21 23  0  0  0  0  0  0  0  0999 V2000
   -4.6520   -2.7320    0.0690 O   0  0  0  0  0  0  0  0  0  0  0  0
   -3.8920   -1.6070    0.0300 C   0  0  0  0  0  0  0  0  0  0  0  0
   -4.5120   -0.3630   -0.0940 C   0  0  0  0  0  0  0  0  0  0  0  0
   -3.7680    0.7840   -0.1350 C   0  0  0  0  0  0  0  0  0  0  0  0
   -4.3790    1.9900   -0.2540 O   0  0  0  0  0  0  0  0  0  0  0  0
   -2.3660    0.7060   -0.0520 C   0  0  0  0  0  0  0  0  0  0  0  0
   -1.5590    1.8620   -0.0890 C   0  0  0  0  0  0  0  0  0  0  0  0
   -0.2020    1.6430    0.0030 C   0  0  0  0  0  0  0  0  0  0  0  0
    0.6790    2.6780   -0.0210 O   0  0  0  0  0  0  0  0  0  0  0  0
    0.2420    0.3130    0.1220 C   0  0  0  0  0  0  0  0  0  0  0  0
   -0.5150   -0.6300    0.1470 O   0  0  0  0  0  0  0  0  0  0  0  0
   -1.7280   -0.5540    0.0740 C   0  0  0  0  0  0  0  0  0  0  0  0
   -2.5200   -1.7110    0.1180 C   0  0  0  0  0  0  0  0  0  0  0  0
    1.6960    0.0580    0.2210 C   0  0  0  0  0  0  0  0  0  0  0  0
    2.3140    0.0130    1.4710 C   0  0  0  0  0  0  0  0  0  0  0  0
    3.6700   -0.2260    1.5620 C   0  0  0  0  0  0  0  0  0  0  0  0
    4.4220   -0.4200    0.4120 C   0  0  0  0  0  0  0  0  0  0  0  0
    5.7570   -0.6540    0.5070 O   0  0  0  0  0  0  0  0  0  0  0  0
    3.8100   -0.3750   -0.8390 C   0  0  0  0  0  0  0  0  0  0  0  0
    4.5490   -0.5660   -1.9650 O   0  0  0  0  0  0  0  0  0  0  0  0
    2.4510   -0.1430   -0.9360 C   0  0  0  0  0  0  0  0  0  0  0  0
  2  1  1  0
  3  2  2  0
  4  3  1  0
  5  4  1  0
  6  4  2  0
  6 12  1  0
  7  6  1  0
  8  7  2  0
  8 10  1  0
  9  8  1  0
 10 14  1  0
 10 11  2  0
 11 12  1  0
 12 13  2  0
 13  2  1  0
 14 15  1  0
 15 16  2  0
 17 18  1  0
 17 16  1  0
 19 17  2  0
 20 19  1  0
 21 19  1  0
 21 14  2  0
M  CHG  1  11   1
M  END
>  <KEY>
CYANIDIN

>  <NAME>
Cyanidin

>  <SOURCE>
rcsb-ccd:HWB

>  <SMILES>
Oc1cc(O)c2cc(O)c(-c3ccc(O)c(O)c3)[o+]c2c1

>  <FORMULA>
C15H11O6+

>  <MW>
287.25

>  <HEAVY_ATOMS>
21

>  <ROTATABLE_BONDS>
1

$$$$
