DAPHNETIN
     RDKit          3D

 13 14  0  0  0  0  0  0  0  0999 V2000
   -0.8354    0.8812    1.0701 O   0  0  0  0  0  0  0  0  0  0  0  0
    1.6975    1.8338    0.6248 O   0  0  0  0  0  0  0  0  0  0  0  0
    3.3950    0.5511   -1.1567 O   0  0  0  0  0  0  0  0  0  0  0  0
   -2.8644    1.0189    2.1234 O   0  0  0  0  0  0  0  0  0  0  0  0
   -0.4430   -0.9280   -0.5105 C   0  0  0  0  0  0  0  0  0  0  0  0
    0.0040    0.2082    0.1589 C   0  0  0  0  0  0  0  0  0  0  0  0
    1.2840    0.7211   -0.0418 C   0  0  0  0  0  0  0  0  0  0  0  0
    0.4180   -1.5667   -1.4056 C   0  0  0  0  0  0  0  0  0  0  0  0
    2.1366    0.0776   -0.9361 C   0  0  0  0  0  0  0  0  0  0  0  0
   -1.7900   -1.4082   -0.2533 C   0  0  0  0  0  0  0  0  0  0  0  0
    1.7050   -1.0633   -1.6167 C   0  0  0  0  0  0  0  0  0  0  0  0
   -2.5788   -0.7654    0.6114 C   0  0  0  0  0  0  0  0  0  0  0  0
   -2.1284    0.4398    1.3320 C   0  0  0  0  0  0  0  0  0  0  0  0
  1  6  1  0
  1 13  1  0
  2  7  1  0
  3  9  1  0
  4 13  2  0
  5  6  2  0
  5  8  1  0
  5 10  1  0
  6  7  1  0
  7  9  2  0
  8 11  2  0
  9 11  1  0
 10 12  2  0
 12 13  1  0
M  END
>  <KEY>
DAPHNETIN

>  <NAME>
Daphnetin

>  <SOURCE>
pubchem-3d:5280569

>  <SMILES>
O=c1ccc2ccc(O)c(O)c2o1

>  <FORMULA>
C9H6O4

>  <MW>
178.14

>  <HEAVY_ATOMS>
13

>  <ROTATABLE_BONDS>
0

$$$$
