DEGUELIN
     RDKit          3D

 29 33  0  0  1  0  0  0  0  0999 V2000
   -0.7283   -1.1354   -1.0483 O   0  0  0  0  0  0  0  0  0  0  0  0
    1.7837   -2.4489   -1.0502 O   0  0  0  0  0  0  0  0  0  0  0  0
   -4.6679    0.7808    0.9559 O   0  0  0  0  0  0  0  0  0  0  0  0
    0.6261    2.6117   -1.9775 O   0  0  0  0  0  0  0  0  0  0  0  0
    4.5596    1.7403    1.2268 O   0  0  0  0  0  0  0  0  0  0  0  0
    5.0353   -0.8859    1.9944 O   0  0  0  0  0  0  0  0  0  0  0  0
    1.0987    0.2554   -1.9489 C   0  0  2  0  0  0  0  0  0  0  0  0
    0.1765   -0.9468   -2.1441 C   0  0  1  0  0  0  0  0  0  0  0  0
    2.1415   -0.0311   -0.8928 C   0  0  0  0  0  0  0  0  0  0  0  0
    1.0269   -2.2080   -2.2416 C   0  0  0  0  0  0  0  0  0  0  0  0
    0.2518    1.4800   -1.6866 C   0  0  0  0  0  0  0  0  0  0  0  0
   -1.4767   -0.0326   -0.7332 C   0  0  0  0  0  0  0  0  0  0  0  0
   -1.0543    1.2661   -1.0309 C   0  0  0  0  0  0  0  0  0  0  0  0
    2.4227   -1.3560   -0.5236 C   0  0  0  0  0  0  0  0  0  0  0  0
   -2.6896   -0.2384   -0.0504 C   0  0  0  0  0  0  0  0  0  0  0  0
   -5.2151   -0.5175    1.2621 C   0  0  0  0  0  0  0  0  0  0  0  0
    2.8907    0.9981   -0.3021 C   0  0  0  0  0  0  0  0  0  0  0  0
   -3.4745    0.8672    0.2950 C   0  0  0  0  0  0  0  0  0  0  0  0
   -1.8439    2.3637   -0.6826 C   0  0  0  0  0  0  0  0  0  0  0  0
   -3.1588   -1.5718    0.3070 C   0  0  0  0  0  0  0  0  0  0  0  0
    3.3828   -1.6352    0.4547 C   0  0  0  0  0  0  0  0  0  0  0  0
   -3.0533    2.1610   -0.0225 C   0  0  0  0  0  0  0  0  0  0  0  0
   -4.3388   -1.6954    0.9181 C   0  0  0  0  0  0  0  0  0  0  0  0
    3.8574    0.7164    0.6657 C   0  0  0  0  0  0  0  0  0  0  0  0
    4.0984   -0.5991    1.0489 C   0  0  0  0  0  0  0  0  0  0  0  0
   -6.5376   -0.6265    0.4941 C   0  0  0  0  0  0  0  0  0  0  0  0
   -5.4929   -0.5187    2.7700 C   0  0  0  0  0  0  0  0  0  0  0  0
    4.0139    2.3313    2.4044 C   0  0  0  0  0  0  0  0  0  0  0  0
    6.3656   -1.1248    1.5381 C   0  0  0  0  0  0  0  0  0  0  0  0
  1  8  1  0
  1 12  1  0
  2 10  1  0
  2 14  1  0
  3 16  1  0
  3 18  1  0
  4 11  2  0
  5 24  1  0
  5 28  1  0
  6 25  1  0
  6 29  1  0
  7  8  1  0
  7  9  1  0
  7 11  1  1
  8 10  1  1
  9 14  2  0
  9 17  1  0
 11 13  1  0
 12 13  2  0
 12 15  1  0
 13 19  1  0
 14 21  1  0
 15 18  2  0
 15 20  1  0
 16 23  1  0
 16 26  1  0
 16 27  1  0
 17 24  2  0
 18 22  1  0
 19 22  2  0
 20 23  2  0
 21 25  2  0
 24 25  1  0
M  END
>  <KEY>
DEGUELIN

>  <NAME>
Deguelin

>  <SOURCE>
pubchem-3d:107935

>  <SMILES>
COc1cc2c(cc1OC)[C@@H]1C(=O)c3ccc4c(c3O[C@@H]1CO2)C=CC(C)(C)O4

>  <FORMULA>
C23H22O6

>  <MW>
394.42

>  <HEAVY_ATOMS>
29

>  <ROTATABLE_BONDS>
2

$$$$
