DELPHINIDIN
     RDKit          3D

 22 24  0  0  0  0  0  0  0  0999 V2000
    0.7410    0.6260    0.0060 O   0  0  0  0  0  0  0  0  0  0  0  0
   -0.0120   -0.3200   -0.0070 C   0  0  0  0  0  0  0  0  0  0  0  0
   -1.4690   -0.0670    0.0000 C   0  0  0  0  0  0  0  0  0  0  0  0
   -2.1560    0.0280    1.2120 C   0  0  0  0  0  0  0  0  0  0  0  0
    4.7460    0.3650   -0.0090 C   0  0  0  0  0  0  0  0  0  0  0  0
    4.0070   -0.7850   -0.0260 C   0  0  0  0  0  0  0  0  0  0  0  0
   -4.1900    0.3480    2.3960 O   0  0  0  0  0  0  0  0  0  0  0  0
   -4.1940    0.4680   -2.3680 O   0  0  0  0  0  0  0  0  0  0  0  0
    2.6030   -0.7090   -0.0210 C   0  0  0  0  0  0  0  0  0  0  0  0
   -3.5200    0.3260   -1.1950 C   0  0  0  0  0  0  0  0  0  0  0  0
   -2.1590    0.0840   -1.2040 C   0  0  0  0  0  0  0  0  0  0  0  0
   -4.2050    0.4100    0.0140 C   0  0  0  0  0  0  0  0  0  0  0  0
   -5.5460    0.6330    0.0210 O   0  0  0  0  0  0  0  0  0  0  0  0
   -3.5180    0.2660    1.2160 C   0  0  0  0  0  0  0  0  0  0  0  0
    0.4410   -1.6520   -0.0310 C   0  0  0  0  0  0  0  0  0  0  0  0
   -0.4360   -2.6910   -0.0460 O   0  0  0  0  0  0  0  0  0  0  0  0
    1.8010   -1.8700   -0.0380 C   0  0  0  0  0  0  0  0  0  0  0  0
    1.9570    0.5520    0.0020 C   0  0  0  0  0  0  0  0  0  0  0  0
    2.7440    1.7140    0.0180 C   0  0  0  0  0  0  0  0  0  0  0  0
    4.1180    1.6120    0.0130 C   0  0  0  0  0  0  0  0  0  0  0  0
    4.8720    2.7410    0.0290 O   0  0  0  0  0  0  0  0  0  0  0  0
    4.6260   -1.9930   -0.0470 O   0  0  0  0  0  0  0  0  0  0  0  0
  1  2  2  0
  1 18  1  0
  2 15  1  0
  3  4  2  0
  3  2  1  0
  5  6  1  0
  6 22  1  0
  8 10  1  0
  9 17  1  0
  9  6  2  0
 10 12  1  0
 10 11  2  0
 11  3  1  0
 12 14  2  0
 13 12  1  0
 14  7  1  0
 14  4  1  0
 15 16  1  0
 15 17  2  0
 18  9  1  0
 19 18  2  0
 19 20  1  0
 20  5  2  0
 21 20  1  0
M  CHG  1   1   1
M  END
>  <KEY>
DELPHINIDIN

>  <NAME>
Delphinidin

>  <SOURCE>
rcsb-ccd:DLM

>  <SMILES>
Oc1cc(O)c2cc(O)c(-c3cc(O)c(O)c(O)c3)[o+]c2c1

>  <FORMULA>
C15H11O7+

>  <MW>
303.25

>  <HEAVY_ATOMS>
22

>  <ROTATABLE_BONDS>
1

$$$$
