DIHYDROMYRICETIN
     RDKit          3D

 23 25  0  0  1  0  0  0  0  0999 V2000
    0.4841   -0.8663   -0.0128 O   0  0  0  0  0  0  0  0  0  0  0  0
   -0.4143    2.7034    0.1063 O   0  0  0  0  0  0  0  0  0  0  0  0
    2.2761    2.8240   -0.1251 O   0  0  0  0  0  0  0  0  0  0  0  0
    4.6143    1.6937   -0.0544 O   0  0  0  0  0  0  0  0  0  0  0  0
   -4.0662   -0.6195   -2.4681 O   0  0  0  0  0  0  0  0  0  0  0  0
   -4.7188   -0.2386    2.2612 O   0  0  0  0  0  0  0  0  0  0  0  0
    4.6876   -3.0470    0.1479 O   0  0  0  0  0  0  0  0  0  0  0  0
   -5.7531   -0.6695   -0.2711 O   0  0  0  0  0  0  0  0  0  0  0  0
   -0.2142    0.3142    0.4138 C   0  0  1  0  0  0  0  0  0  0  0  0
    0.2449    1.5438   -0.3719 C   0  0  2  0  0  0  0  0  0  0  0  0
   -1.6968    0.0505    0.2301 C   0  0  0  0  0  0  0  0  0  0  0  0
    1.7323    1.7267   -0.1632 C   0  0  0  0  0  0  0  0  0  0  0  0
    2.5169    0.4821   -0.0424 C   0  0  0  0  0  0  0  0  0  0  0  0
    1.8476   -0.7427    0.0095 C   0  0  0  0  0  0  0  0  0  0  0  0
   -2.5397    0.0255    1.3390 C   0  0  0  0  0  0  0  0  0  0  0  0
   -2.2108   -0.1659   -1.0468 C   0  0  0  0  0  0  0  0  0  0  0  0
    3.9133    0.5264   -0.0091 C   0  0  0  0  0  0  0  0  0  0  0  0
    2.5803   -1.9297    0.0598 C   0  0  0  0  0  0  0  0  0  0  0  0
   -3.5741   -0.4084   -1.2153 C   0  0  0  0  0  0  0  0  0  0  0  0
   -3.9029   -0.2172    1.1706 C   0  0  0  0  0  0  0  0  0  0  0  0
    4.6393   -0.6629    0.0596 C   0  0  0  0  0  0  0  0  0  0  0  0
    3.9746   -1.8887    0.0891 C   0  0  0  0  0  0  0  0  0  0  0  0
   -4.4203   -0.4340   -0.1066 C   0  0  0  0  0  0  0  0  0  0  0  0
  1  9  1  0
  1 14  1  0
 10  2  1  1
  3 12  2  0
  4 17  1  0
  5 19  1  0
  6 20  1  0
  7 22  1  0
  8 23  1  0
  9 10  1  0
  9 11  1  6
 10 12  1  0
 11 15  1  0
 11 16  2  0
 12 13  1  0
 13 14  1  0
 13 17  2  0
 14 18  2  0
 15 20  2  0
 16 19  1  0
 17 21  1  0
 18 22  1  0
 19 23  2  0
 20 23  1  0
 21 22  2  0
M  END
>  <KEY>
DIHYDROMYRICETIN

>  <NAME>
Dihydromyricetin

>  <SOURCE>
pubchem-3d:161557

>  <SMILES>
O=C1c2c(O)cc(O)cc2O[C@H](c2cc(O)c(O)c(O)c2)[C@H]1O

>  <FORMULA>
C15H12O8

>  <MW>
320.25

>  <HEAVY_ATOMS>
23

>  <ROTATABLE_BONDS>
1

$$$$
