DIINDOLYLMETHANE
     RDKit          3D

 19 22  0  0  0  0  0  0  0  0999 V2000
   -2.2633    2.1103    0.3524 N   0  0  0  0  0  0  0  0  0  0  0  0
    2.2600   -2.1084    0.3522 N   0  0  0  0  0  0  0  0  0  0  0  0
   -0.0017    0.0010   -1.5889 C   0  0  0  0  0  0  0  0  0  0  0  0
   -1.0777    0.6209   -0.7890 C   0  0  0  0  0  0  0  0  0  0  0  0
    1.1066   -0.6374   -0.7651 C   0  0  0  0  0  0  0  0  0  0  0  0
   -2.2656   -0.0138   -0.3296 C   0  0  0  0  0  0  0  0  0  0  0  0
    2.2621    0.0158   -0.3296 C   0  0  0  0  0  0  0  0  0  0  0  0
   -2.9916    0.9424    0.3836 C   0  0  0  0  0  0  0  0  0  0  0  0
    2.9882   -0.9405    0.3835 C   0  0  0  0  0  0  0  0  0  0  0  0
   -1.1052    1.9259   -0.3540 C   0  0  0  0  0  0  0  0  0  0  0  0
    1.1018   -1.9239   -0.3542 C   0  0  0  0  0  0  0  0  0  0  0  0
   -2.7943   -1.3142   -0.4523 C   0  0  0  0  0  0  0  0  0  0  0  0
    2.7909    1.3162   -0.4523 C   0  0  0  0  0  0  0  0  0  0  0  0
   -4.2250    0.6623    0.9826 C   0  0  0  0  0  0  0  0  0  0  0  0
    4.2216   -0.6604    0.9825 C   0  0  0  0  0  0  0  0  0  0  0  0
   -4.0269   -1.6089    0.1416 C   0  0  0  0  0  0  0  0  0  0  0  0
    4.0236    1.6108    0.1416 C   0  0  0  0  0  0  0  0  0  0  0  0
   -4.7295   -0.6343    0.8475 C   0  0  0  0  0  0  0  0  0  0  0  0
    4.7262    0.6363    0.8475 C   0  0  0  0  0  0  0  0  0  0  0  0
  1  8  1  0
  1 10  1  0
  2  9  1  0
  2 11  1  0
  3  4  1  0
  3  5  1  0
  4  6  1  0
  4 10  2  0
  5  7  1  0
  5 11  2  0
  6  8  1  0
  6 12  2  0
  7  9  1  0
  7 13  2  0
  8 14  2  0
  9 15  2  0
 12 16  1  0
 13 17  1  0
 14 18  1  0
 15 19  1  0
 16 18  2  0
 17 19  2  0
M  END
>  <KEY>
DIINDOLYLMETHANE

>  <NAME>
3,3'-Diindolylmethane

>  <SOURCE>
pubchem-3d:3071

>  <SMILES>
c1ccc2c(Cc3c[nH]c4ccccc34)c[nH]c2c1

>  <FORMULA>
C17H14N2

>  <MW>
246.31

>  <HEAVY_ATOMS>
19

>  <ROTATABLE_BONDS>
2

$$$$
