DIOSGENIN
     RDKit          3D

 30 35  0  0  1  0  0  0  0  0999 V2000
    5.8520    1.5860   -0.7450 C   0  0  1  0  0  0  0  0  0  0  0  0
    4.5170    1.7530   -1.4800 C   0  0  0  0  0  0  0  0  0  0  0  0
   -7.6040    1.2100   -0.5240 O   0  0  0  0  0  0  0  0  0  0  0  0
    6.4640    2.9630   -0.4790 C   0  0  0  0  0  0  0  0  0  0  0  0
    2.8390    0.5340    0.5440 O   0  0  0  0  0  0  0  0  0  0  0  0
    4.9750   -0.3870    0.3520 O   0  0  0  0  0  0  0  0  0  0  0  0
    3.8760    0.3700   -1.6560 C   0  0  0  0  0  0  0  0  0  0  0  0
    3.7030   -0.2690   -0.2830 C   0  0  2  0  0  0  0  0  0  0  0  0
    3.0490   -1.6570   -0.3960 C   0  0  2  0  0  0  0  0  0  0  0  0
    1.9150   -1.6420    0.6460 C   0  0  1  0  0  0  0  0  0  0  0  0
    2.2860   -0.3800    1.5060 C   0  0  2  0  0  0  0  0  0  0  0  0
    0.9440    0.1320    2.0610 C   0  0  0  0  0  0  0  0  0  0  0  0
   -0.1410   -0.5880    1.2870 C   0  0  2  0  0  0  0  0  0  0  0  0
    0.5540   -1.2710    0.0830 C   0  0  2  0  0  0  0  0  0  0  0  0
   -0.3680   -2.4230   -0.3020 C   0  0  0  0  0  0  0  0  0  0  0  0
   -1.6830   -1.7980   -0.8130 C   0  0  0  0  0  0  0  0  0  0  0  0
   -2.3280   -0.8630    0.1900 C   0  0  1  0  0  0  0  0  0  0  0  0
   -1.3620    0.1540    0.8210 C   0  0  1  0  0  0  0  0  0  0  0  0
   -2.0880    0.7700    2.0290 C   0  0  0  0  0  0  0  0  0  0  0  0
   -3.3890    1.3630    1.5730 C   0  0  0  0  0  0  0  0  0  0  0  0
   -4.0220    0.9670    0.5070 C   0  0  0  0  0  0  0  0  0  0  0  0
   -3.5240   -0.1260   -0.4000 C   0  0  2  0  0  0  0  0  0  0  0  0
   -4.6520   -1.1150   -0.6890 C   0  0  0  0  0  0  0  0  0  0  0  0
   -5.9060   -0.3830   -1.1660 C   0  0  0  0  0  0  0  0  0  0  0  0
   -6.3940    0.5840   -0.0870 C   0  0  1  0  0  0  0  0  0  0  0  0
   -5.3280    1.6540    0.1550 C   0  0  0  0  0  0  0  0  0  0  0  0
   -3.1120    0.5380   -1.7140 C   0  0  0  0  0  0  0  0  0  0  0  0
    0.6680   -0.3030   -1.0910 C   0  0  0  0  0  0  0  0  0  0  0  0
    4.0770   -2.7400   -0.0310 C   0  0  0  0  0  0  0  0  0  0  0  0
    5.6160    0.8690    0.5880 C   0  0  0  0  0  0  0  0  0  0  0  0
  1  2  1  0
  1 30  1  0
  2  7  1  0
  1  4  1  1
  5 11  1  0
  6  8  1  0
  8  7  1  6
  8  9  1  0
  8  5  1  0
  9 10  1  0
 10 14  1  0
 10 11  1  1
 11 12  1  6
 13 12  1  6
 13 18  1  0
 14 15  1  0
 14 13  1  0
 15 16  1  0
 17 16  1  6
 17 22  1  0
 18 17  1  0
 18 19  1  1
 19 20  1  0
 20 21  2  0
 21 26  1  0
 22 21  1  0
 22 23  1  0
 23 24  1  0
 24 25  1  0
 25  3  1  6
 26 25  1  0
 22 27  1  6
 14 28  1  6
  9 29  1  1
 30  6  1  0
M  END
>  <KEY>
DIOSGENIN

>  <NAME>
Diosgenin

>  <SOURCE>
rcsb-ccd:YUV

>  <SMILES>
C[C@@H]1CC[C@@]2(OC1)O[C@H]1C[C@H]3[C@@H]4CC=C5C[C@@H](O)CC[C@]5(C)[C@H]4CC[C@]3(C)[C@H]1[C@@H]2C

>  <FORMULA>
C27H42O3

>  <MW>
414.63

>  <HEAVY_ATOMS>
30

>  <ROTATABLE_BONDS>
0

$$$$
