EGCG
     RDKit          3D

 33 36  0  0  1  0  0  0  0  0999 V2000
    1.1540    3.3890   -2.3010 O   0  0  0  0  0  0  0  0  0  0  0  0
    0.3080    3.4240   -1.2360 C   0  0  0  0  0  0  0  0  0  0  0  0
    0.1730    4.5900   -0.4930 C   0  0  0  0  0  0  0  0  0  0  0  0
    0.8870    5.7000   -0.8270 O   0  0  0  0  0  0  0  0  0  0  0  0
   -0.6930    4.6210    0.5940 C   0  0  0  0  0  0  0  0  0  0  0  0
   -0.8290    5.7600    1.3240 O   0  0  0  0  0  0  0  0  0  0  0  0
   -1.4190    3.4880    0.9310 C   0  0  0  0  0  0  0  0  0  0  0  0
   -1.2820    2.3300    0.1890 C   0  0  0  0  0  0  0  0  0  0  0  0
   -2.0720    1.1020    0.5600 C   0  0  2  0  0  0  0  0  0  0  0  0
   -2.9320   -0.8710   -0.4730 C   0  0  0  0  0  0  0  0  0  0  0  0
   -3.6030   -1.4430   -1.5490 C   0  0  0  0  0  0  0  0  0  0  0  0
   -4.1350   -2.7170   -1.4420 C   0  0  0  0  0  0  0  0  0  0  0  0
   -3.9970   -3.4270   -0.2590 C   0  0  0  0  0  0  0  0  0  0  0  0
   -3.3300   -2.8580    0.8130 C   0  0  0  0  0  0  0  0  0  0  0  0
   -2.7990   -1.5780    0.7090 C   0  0  0  0  0  0  0  0  0  0  0  0
   -1.2220    0.1910    1.4550 C   0  0  1  0  0  0  0  0  0  0  0  0
    1.0430   -0.5590    1.4090 C   0  0  0  0  0  0  0  0  0  0  0  0
    2.2460   -1.0590    0.7170 C   0  0  0  0  0  0  0  0  0  0  0  0
    3.4090   -1.3310    1.4430 C   0  0  0  0  0  0  0  0  0  0  0  0
    2.2230   -1.2680   -0.6640 C   0  0  0  0  0  0  0  0  0  0  0  0
   -2.0890   -0.9880    1.9010 C   0  0  0  0  0  0  0  0  0  0  0  0
   -2.4170    0.3780   -0.6220 O   0  0  0  0  0  0  0  0  0  0  0  0
   -4.7900   -3.2710   -2.4960 O   0  0  0  0  0  0  0  0  0  0  0  0
   -3.1960   -3.5540    1.9730 O   0  0  0  0  0  0  0  0  0  0  0  0
   -0.4250    2.2980   -0.8950 C   0  0  0  0  0  0  0  0  0  0  0  0
   -0.0770   -0.2980    0.7080 O   0  0  0  0  0  0  0  0  0  0  0  0
    1.0630   -0.3840    2.6110 O   0  0  0  0  0  0  0  0  0  0  0  0
    3.3510   -1.7370   -1.3100 C   0  0  0  0  0  0  0  0  0  0  0  0
    3.3300   -1.9390   -2.6550 O   0  0  0  0  0  0  0  0  0  0  0  0
    4.5110   -2.0010   -0.5860 C   0  0  0  0  0  0  0  0  0  0  0  0
    5.6190   -2.4620   -1.2230 O   0  0  0  0  0  0  0  0  0  0  0  0
    4.5350   -1.8000    0.7920 C   0  0  0  0  0  0  0  0  0  0  0  0
    5.6670   -2.0640    1.4980 O   0  0  0  0  0  0  0  0  0  0  0  0
  1  2  1  0
  2  3  2  0
  2 25  1  0
  3  4  1  0
  3  5  1  0
  5  6  1  0
  5  7  2  0
  7  8  1  0
  9  8  1  6
  8 25  2  0
  9 16  1  0
  9 22  1  0
 10 11  2  0
 10 15  1  0
 10 22  1  0
 11 12  1  0
 12 13  2  0
 12 23  1  0
 13 14  1  0
 14 15  2  0
 14 24  1  0
 15 21  1  0
 16 21  1  0
 16 26  1  6
 17 18  1  0
 17 26  1  0
 17 27  2  0
 18 19  1  0
 18 20  2  0
 19 32  2  0
 20 28  1  0
 28 29  1  0
 28 30  2  0
 30 31  1  0
 30 32  1  0
 32 33  1  0
M  END
>  <KEY>
EGCG

>  <NAME>
Epigallocatechin gallate

>  <SOURCE>
rcsb-ccd:KDH

>  <SMILES>
O=C(O[C@@H]1Cc2c(O)cc(O)cc2O[C@@H]1c1cc(O)c(O)c(O)c1)c1cc(O)c(O)c(O)c1

>  <FORMULA>
C22H18O11

>  <MW>
458.38

>  <HEAVY_ATOMS>
33

>  <ROTATABLE_BONDS>
3

$$$$
