ELLAGIC_ACID
     RDKit          3D

 22 25  0  0  0  0  0  0  0  0999 V2000
   -1.1940    1.4310   -0.0430 C   0  0  0  0  0  0  0  0  0  0  0  0
   -0.7260    0.1030    0.0590 C   0  0  0  0  0  0  0  0  0  0  0  0
    0.7270   -0.1030    0.0620 C   0  0  0  0  0  0  0  0  0  0  0  0
    1.5900    0.9860    0.1530 C   0  0  0  0  0  0  0  0  0  0  0  0
    1.0840    2.2380    0.2720 O   0  0  0  0  0  0  0  0  0  0  0  0
   -0.1730    2.4820   -0.1690 C   0  0  0  0  0  0  0  0  0  0  0  0
    1.1940   -1.4310   -0.0410 C   0  0  0  0  0  0  0  0  0  0  0  0
    2.5640   -1.6590   -0.0360 C   0  0  0  0  0  0  0  0  0  0  0  0
    3.4290   -0.5780    0.0510 C   0  0  0  0  0  0  0  0  0  0  0  0
    2.9590    0.7330    0.1400 C   0  0  0  0  0  0  0  0  0  0  0  0
   -1.5900   -0.9860    0.1530 C   0  0  0  0  0  0  0  0  0  0  0  0
   -1.0840   -2.2380    0.2750 O   0  0  0  0  0  0  0  0  0  0  0  0
    0.1720   -2.4810   -0.1700 C   0  0  0  0  0  0  0  0  0  0  0  0
   -2.5640    1.6590   -0.0370 C   0  0  0  0  0  0  0  0  0  0  0  0
   -3.4280    0.5770    0.0510 C   0  0  0  0  0  0  0  0  0  0  0  0
   -2.9580   -0.7340    0.1400 C   0  0  0  0  0  0  0  0  0  0  0  0
    3.8390    1.7650    0.2140 O   0  0  0  0  0  0  0  0  0  0  0  0
    4.7700   -0.8010    0.0500 O   0  0  0  0  0  0  0  0  0  0  0  0
    0.4520   -3.5550   -0.6690 O   0  0  0  0  0  0  0  0  0  0  0  0
   -3.8390   -1.7660    0.2150 O   0  0  0  0  0  0  0  0  0  0  0  0
   -4.7700    0.8010    0.0490 O   0  0  0  0  0  0  0  0  0  0  0  0
   -0.4540    3.5560   -0.6650 O   0  0  0  0  0  0  0  0  0  0  0  0
  1  2  1  0
  1  6  1  0
  1 14  2  0
  2  3  1  0
  2 11  2  0
  3  4  1  0
  3  7  2  0
  4  5  1  0
  4 10  2  0
  5  6  1  0
  6 22  2  0
  7  8  1  0
  7 13  1  0
  8  9  2  0
  9 10  1  0
  9 18  1  0
 10 17  1  0
 11 12  1  0
 11 16  1  0
 12 13  1  0
 13 19  2  0
 14 15  1  0
 15 16  2  0
 15 21  1  0
 16 20  1  0
M  END
>  <KEY>
ELLAGIC_ACID

>  <NAME>
Ellagic acid

>  <SOURCE>
rcsb-ccd:REF

>  <SMILES>
O=c1oc2c(O)c(O)cc3c(=O)oc4c(O)c(O)cc1c4c23

>  <FORMULA>
C14H6O8

>  <MW>
302.19

>  <HEAVY_ATOMS>
22

>  <ROTATABLE_BONDS>
0

$$$$
