EMBELIN
     RDKit          3D

 21 21  0  0  0  0  0  0  0  0999 V2000
   -3.9550   -1.1980   -0.2830 C   0  0  0  0  0  0  0  0  0  0  0  0
   -3.3590    0.1160   -0.5400 C   0  0  0  0  0  0  0  0  0  0  0  0
   -3.9950    1.2370   -0.1380 C   0  0  0  0  0  0  0  0  0  0  0  0
   -5.3000    1.1380    0.5650 C   0  0  0  0  0  0  0  0  0  0  0  0
   -5.8970   -0.1760    0.8220 C   0  0  0  0  0  0  0  0  0  0  0  0
   -5.2630   -1.2960    0.4150 C   0  0  0  0  0  0  0  0  0  0  0  0
   -5.8710    2.1460    0.9320 O   0  0  0  0  0  0  0  0  0  0  0  0
   -3.3820   -2.2060   -0.6450 O   0  0  0  0  0  0  0  0  0  0  0  0
   -3.4440    2.4490   -0.3740 O   0  0  0  0  0  0  0  0  0  0  0  0
   -5.8140   -2.5090    0.6510 O   0  0  0  0  0  0  0  0  0  0  0  0
   -2.0340    0.2160   -1.2530 C   0  0  0  0  0  0  0  0  0  0  0  0
   -0.8970    0.0610   -0.2410 C   0  0  0  0  0  0  0  0  0  0  0  0
    0.4470    0.1620   -0.9640 C   0  0  0  0  0  0  0  0  0  0  0  0
    1.5840    0.0070    0.0470 C   0  0  0  0  0  0  0  0  0  0  0  0
    2.9280    0.1090   -0.6760 C   0  0  0  0  0  0  0  0  0  0  0  0
    4.0650   -0.0470    0.3360 C   0  0  0  0  0  0  0  0  0  0  0  0
    5.4090    0.0550   -0.3880 C   0  0  0  0  0  0  0  0  0  0  0  0
    6.5460   -0.1010    0.6240 C   0  0  0  0  0  0  0  0  0  0  0  0
    7.8900    0.0010   -0.1000 C   0  0  0  0  0  0  0  0  0  0  0  0
    9.0270   -0.1540    0.9120 C   0  0  0  0  0  0  0  0  0  0  0  0
   10.3720   -0.0530    0.1890 C   0  0  0  0  0  0  0  0  0  0  0  0
  1  8  2  0
  2  1  1  0
  2 11  1  0
  3  2  2  0
  4  5  1  0
  4  3  1  0
  5  6  2  0
  6 10  1  0
  6  1  1  0
  7  4  2  0
  9  3  1  0
 11 12  1  0
 12 13  1  0
 13 14  1  0
 14 15  1  0
 15 16  1  0
 16 17  1  0
 17 18  1  0
 18 19  1  0
 19 20  1  0
 20 21  1  0
M  END
>  <KEY>
EMBELIN

>  <NAME>
Embelin

>  <SOURCE>
rcsb-ccd:EMJ

>  <SMILES>
CCCCCCCCCCCC1=C(O)C(=O)C=C(O)C1=O

>  <FORMULA>
C17H26O4

>  <MW>
294.39

>  <HEAVY_ATOMS>
21

>  <ROTATABLE_BONDS>
10

$$$$
