ESCULETIN
     RDKit          3D

 13 14  0  0  0  0  0  0  0  0999 V2000
   -0.2370    0.4298    0.4547 C   0  0  0  0  0  0  0  0  0  0  0  0
   -0.4318   -0.7154   -0.3392 C   0  0  0  0  0  0  0  0  0  0  0  0
    0.5962   -1.1784   -1.1682 C   0  0  0  0  0  0  0  0  0  0  0  0
    1.7998   -0.5074   -1.2016 C   0  0  0  0  0  0  0  0  0  0  0  0
    1.9927    0.6298   -0.4116 C   0  0  0  0  0  0  0  0  0  0  0  0
    0.9821    1.0908    0.4144 C   0  0  0  0  0  0  0  0  0  0  0  0
   -1.2330    0.8723    1.2529 O   0  0  0  0  0  0  0  0  0  0  0  0
   -2.4188    0.2460    1.3058 C   0  0  0  0  0  0  0  0  0  0  0  0
   -2.6849   -0.9031    0.5340 C   0  0  0  0  0  0  0  0  0  0  0  0
   -1.7216   -1.4062   -0.2823 C   0  0  0  0  0  0  0  0  0  0  0  0
   -3.2876    0.6814    2.0406 O   0  0  0  0  0  0  0  0  0  0  0  0
    3.1816    1.2844   -0.4508 O   0  0  0  0  0  0  0  0  0  0  0  0
    2.8035   -0.9529   -2.0045 O   0  0  0  0  0  0  0  0  0  0  0  0
  1  7  1  0
  1  6  2  0
  2  1  1  0
  3  2  2  0
  3  4  1  0
  4  5  2  0
  5  6  1  0
  5 12  1  0
  8 11  2  0
  8  7  1  0
  9  8  1  0
 10  9  2  0
 10  2  1  0
 13  4  1  0
M  END
>  <KEY>
ESCULETIN

>  <NAME>
Esculetin

>  <SOURCE>
rcsb-ccd:HFC

>  <SMILES>
O=c1ccc2cc(O)c(O)cc2o1

>  <FORMULA>
C9H6O4

>  <MW>
178.14

>  <HEAVY_ATOMS>
13

>  <ROTATABLE_BONDS>
0

$$$$
