EUGENOL
     RDKit          3D

 12 12  0  0  0  0  0  0  0  0999 V2000
    0.0510   -0.7620   -0.2990 C   0  0  0  0  0  0  0  0  0  0  0  0
    2.7950    1.5320    0.4070 O   0  0  0  0  0  0  0  0  0  0  0  0
   -0.9890    0.1320   -0.4710 C   0  0  0  0  0  0  0  0  0  0  0  0
    2.3480   -1.1750    0.1640 O   0  0  0  0  0  0  0  0  0  0  0  0
    1.3230   -0.2970   -0.0050 C   0  0  0  0  0  0  0  0  0  0  0  0
   -0.7650    1.4900   -0.3500 C   0  0  0  0  0  0  0  0  0  0  0  0
    1.5490    1.0710    0.1170 C   0  0  0  0  0  0  0  0  0  0  0  0
    0.5020    1.9610   -0.0570 C   0  0  0  0  0  0  0  0  0  0  0  0
   -2.3720   -0.3760   -0.7910 C   0  0  0  0  0  0  0  0  0  0  0  0
   -3.1260   -0.6210    0.4900 C   0  0  0  0  0  0  0  0  0  0  0  0
   -4.2890   -0.0490    0.6850 C   0  0  0  0  0  0  0  0  0  0  0  0
    2.0420   -2.5640    0.0230 C   0  0  0  0  0  0  0  0  0  0  0  0
  1  3  2  0
  1  5  1  0
  2  7  1  0
  3  6  1  0
  3  9  1  0
  4  5  1  0
  4 12  1  0
  5  7  2  0
  6  8  2  0
  7  8  1  0
  9 10  1  0
 10 11  2  0
M  END
>  <KEY>
EUGENOL

>  <NAME>
Eugenol

>  <SOURCE>
rcsb-ccd:EOL

>  <SMILES>
C=CCc1ccc(O)c(OC)c1

>  <FORMULA>
C10H12O2

>  <MW>
164.20

>  <HEAVY_ATOMS>
12

>  <ROTATABLE_BONDS>
3

$$$$
