EVODIAMINE
     RDKit          3D

 23 27  0  0  1  0  0  0  0  0999 V2000
   -2.2651   -2.6378   -0.7073 O   0  0  0  0  0  0  0  0  0  0  0  0
   -0.9399   -1.5213    0.8344 N   0  0  0  0  0  0  0  0  0  0  0  0
   -1.4514    0.8295    1.3131 N   0  0  0  0  0  0  0  0  0  0  0  0
    1.5381    1.1861    0.6716 N   0  0  0  0  0  0  0  0  0  0  0  0
   -0.4628   -0.2394    1.3957 C   0  0  2  0  0  0  0  0  0  0  0  0
    0.8804   -0.0067    0.7628 C   0  0  0  0  0  0  0  0  0  0  0  0
    1.6874   -0.9898    0.2165 C   0  0  0  0  0  0  0  0  0  0  0  0
   -0.0104   -2.6563    0.9945 C   0  0  0  0  0  0  0  0  0  0  0  0
    1.2552   -2.4213    0.1408 C   0  0  0  0  0  0  0  0  0  0  0  0
    2.8794   -0.3614   -0.2378 C   0  0  0  0  0  0  0  0  0  0  0  0
   -1.9526   -1.6064   -0.1167 C   0  0  0  0  0  0  0  0  0  0  0  0
   -2.4051    0.8208    0.3087 C   0  0  0  0  0  0  0  0  0  0  0  0
    2.7599    1.0003    0.0601 C   0  0  0  0  0  0  0  0  0  0  0  0
   -2.6712   -0.3476   -0.4238 C   0  0  0  0  0  0  0  0  0  0  0  0
   -1.3236    1.9610    2.2233 C   0  0  0  0  0  0  0  0  0  0  0  0
    4.0509   -0.8145   -0.8770 C   0  0  0  0  0  0  0  0  0  0  0  0
   -3.1669    1.9610   -0.0177 C   0  0  0  0  0  0  0  0  0  0  0  0
    3.7601    1.9293   -0.2488 C   0  0  0  0  0  0  0  0  0  0  0  0
   -3.6392   -0.3685   -1.4429 C   0  0  0  0  0  0  0  0  0  0  0  0
    5.0579    0.1048   -1.1915 C   0  0  0  0  0  0  0  0  0  0  0  0
    4.9128    1.4552   -0.8811 C   0  0  0  0  0  0  0  0  0  0  0  0
   -4.1298    1.9442   -1.0311 C   0  0  0  0  0  0  0  0  0  0  0  0
   -4.3642    0.7789   -1.7459 C   0  0  0  0  0  0  0  0  0  0  0  0
  1 11  2  0
  2  5  1  0
  2  8  1  0
  2 11  1  0
  5  3  1  6
  3 12  1  0
  3 15  1  0
  4  6  1  0
  4 13  1  0
  5  6  1  0
  6  7  2  0
  7  9  1  0
  7 10  1  0
  8  9  1  0
 10 13  1  0
 10 16  2  0
 11 14  1  0
 12 14  1  0
 12 17  2  0
 13 18  2  0
 14 19  2  0
 16 20  1  0
 17 22  1  0
 18 21  1  0
 19 23  1  0
 20 21  2  0
 22 23  2  0
M  END
>  <KEY>
EVODIAMINE

>  <NAME>
Evodiamine

>  <SOURCE>
pubchem-3d:442088

>  <SMILES>
CN1c2ccccc2C(=O)N2CCc3c([nH]c4ccccc34)[C@H]21

>  <FORMULA>
C19H17N3O

>  <MW>
303.37

>  <HEAVY_ATOMS>
23

>  <ROTATABLE_BONDS>
0

$$$$
