FARNESOL
     RDKit          3D

 16 15  0  0  0  0  0  0  0  0999 V2000
   -4.4450    1.8190   -0.8590 C   0  0  0  0  0  0  0  0  0  0  0  0
   -5.1810    0.5640   -0.4680 C   0  0  0  0  0  0  0  0  0  0  0  0
   -6.6790    0.5890   -0.3040 C   0  0  0  0  0  0  0  0  0  0  0  0
   -4.5180   -0.5490   -0.2720 C   0  0  0  0  0  0  0  0  0  0  0  0
   -3.0210   -0.5740   -0.4360 C   0  0  0  0  0  0  0  0  0  0  0  0
   -2.3760   -1.1080    0.8440 C   0  0  0  0  0  0  0  0  0  0  0  0
   -0.8780   -1.1330    0.6800 C   0  0  0  0  0  0  0  0  0  0  0  0
   -0.2110   -2.3140    0.0230 C   0  0  0  0  0  0  0  0  0  0  0  0
   -0.1550   -0.1270    1.1070 C   0  0  0  0  0  0  0  0  0  0  0  0
    1.3490   -0.2040    1.0550 C   0  0  0  0  0  0  0  0  0  0  0  0
    1.8950    1.0010    0.2870 C   0  0  0  0  0  0  0  0  0  0  0  0
    3.3990    0.9240    0.2350 C   0  0  0  0  0  0  0  0  0  0  0  0
    4.2210    1.4620    1.3770 C   0  0  0  0  0  0  0  0  0  0  0  0
    3.9920    0.3890   -0.8040 C   0  0  0  0  0  0  0  0  0  0  0  0
    5.4960    0.3120   -0.8560 C   0  0  0  0  0  0  0  0  0  0  0  0
    5.8910   -0.9860   -1.3030 O   0  0  0  0  0  0  0  0  0  0  0  0
  1  2  1  0
  2  4  2  3
  3  2  1  0
  4  5  1  0
  5  6  1  0
  6  7  1  0
  7  9  2  0
  8  7  1  0
  9 10  1  0
 10 11  1  0
 12 11  1  0
 13 12  1  0
 14 12  2  0
 15 14  1  0
 15 16  1  0
M  END
>  <KEY>
FARNESOL

>  <NAME>
Farnesol

>  <SOURCE>
rcsb-ccd:FOF

>  <SMILES>
CC(C)=CCC/C(C)=C/CC/C(C)=C/CO

>  <FORMULA>
C15H26O

>  <MW>
222.37

>  <HEAVY_ATOMS>
16

>  <ROTATABLE_BONDS>
7

$$$$
