FERULIC_ACID
     RDKit          3D

 14 14  0  0  0  0  0  0  0  0999 V2000
   -1.0390    0.0120    2.4930 C   0  0  0  0  0  0  0  0  0  0  0  0
   -1.9190    0.0190    1.4180 C   0  0  0  0  0  0  0  0  0  0  0  0
   -1.4370    0.0130    0.1280 C   0  0  0  0  0  0  0  0  0  0  0  0
    0.3370    0.0090    2.2710 C   0  0  0  0  0  0  0  0  0  0  0  0
    0.8290    0.0040    0.9810 C   0  0  0  0  0  0  0  0  0  0  0  0
   -0.0560    0.0060   -0.1010 C   0  0  0  0  0  0  0  0  0  0  0  0
    2.5170   -0.0010    2.7840 C   0  0  0  0  0  0  0  0  0  0  0  0
    0.4610   -0.0000   -1.4770 C   0  0  0  0  0  0  0  0  0  0  0  0
   -0.3960    0.0010   -2.5210 C   0  0  0  0  0  0  0  0  0  0  0  0
    0.1030   -0.0040   -3.8480 C   0  0  0  0  0  0  0  0  0  0  0  0
    1.3030   -0.0120   -4.0460 O   0  0  0  0  0  0  0  0  0  0  0  0
   -0.7520   -0.0030   -4.8910 O   0  0  0  0  0  0  0  0  0  0  0  0
   -1.5210    0.0170    3.7620 O   0  0  0  0  0  0  0  0  0  0  0  0
    1.1950    0.0070    3.3260 O   0  0  0  0  0  0  0  0  0  0  0  0
  1  2  1  0
  1  4  2  0
  1 13  1  0
  2  3  2  0
  3  6  1  0
  4  5  1  0
  4 14  1  0
  5  6  2  0
  6  8  1  0
  7 14  1  0
  8  9  2  0
  9 10  1  0
 10 11  2  0
 10 12  1  0
M  END
>  <KEY>
FERULIC_ACID

>  <NAME>
Ferulic acid

>  <SOURCE>
rcsb-ccd:FER

>  <SMILES>
COc1cc(/C=C/C(=O)O)ccc1O

>  <FORMULA>
C10H10O4

>  <MW>
194.19

>  <HEAVY_ATOMS>
14

>  <ROTATABLE_BONDS>
3

$$$$
