FISETIN
     RDKit          3D

 21 23  0  0  0  0  0  0  0  0999 V2000
   -4.7860    0.0260    0.1230 C   0  0  0  0  0  0  0  0  0  0  0  0
   -3.8960   -0.9990   -0.0330 C   0  0  0  0  0  0  0  0  0  0  0  0
   -2.5270   -0.7290   -0.0680 C   0  0  0  0  0  0  0  0  0  0  0  0
   -2.0630    0.5920    0.0560 C   0  0  0  0  0  0  0  0  0  0  0  0
   -2.9800    1.6220    0.2130 C   0  0  0  0  0  0  0  0  0  0  0  0
   -4.3340    1.3380    0.2460 C   0  0  0  0  0  0  0  0  0  0  0  0
   -1.5390   -1.8090   -0.2350 C   0  0  0  0  0  0  0  0  0  0  0  0
   -0.1690   -1.4420   -0.2590 C   0  0  0  0  0  0  0  0  0  0  0  0
    0.1750   -0.1290   -0.1300 C   0  0  0  0  0  0  0  0  0  0  0  0
    1.6040    0.2360   -0.1570 C   0  0  0  0  0  0  0  0  0  0  0  0
    2.0410    1.2940   -0.9580 C   0  0  0  0  0  0  0  0  0  0  0  0
    3.3780    1.6330   -0.9820 C   0  0  0  0  0  0  0  0  0  0  0  0
    4.2900    0.9260   -0.2120 C   0  0  0  0  0  0  0  0  0  0  0  0
    3.8610   -0.1310    0.5890 C   0  0  0  0  0  0  0  0  0  0  0  0
    2.5230   -0.4720    0.6230 C   0  0  0  0  0  0  0  0  0  0  0  0
   -0.7380    0.8450    0.0210 O   0  0  0  0  0  0  0  0  0  0  0  0
   -1.8850   -2.9740   -0.3470 O   0  0  0  0  0  0  0  0  0  0  0  0
    4.7580   -0.8210    1.3420 O   0  0  0  0  0  0  0  0  0  0  0  0
    5.6060    1.2640   -0.2400 O   0  0  0  0  0  0  0  0  0  0  0  0
    0.7930   -2.3920   -0.4080 O   0  0  0  0  0  0  0  0  0  0  0  0
   -5.2300    2.3460    0.4000 O   0  0  0  0  0  0  0  0  0  0  0  0
  1  2  2  0
  1  6  1  0
  2  3  1  0
  3  4  2  0
  3  7  1  0
  4  5  1  0
  4 16  1  0
  5  6  2  0
  6 21  1  0
  7  8  1  0
  7 17  2  0
  8  9  2  0
  8 20  1  0
  9 10  1  0
  9 16  1  0
 10 11  1  0
 10 15  2  0
 11 12  2  0
 12 13  1  0
 13 14  2  0
 13 19  1  0
 14 15  1  0
 14 18  1  0
M  END
>  <KEY>
FISETIN

>  <NAME>
Fisetin

>  <SOURCE>
rcsb-ccd:FSE

>  <SMILES>
O=c1c(O)c(-c2ccc(O)c(O)c2)oc2cc(O)ccc12

>  <FORMULA>
C15H10O6

>  <MW>
286.24

>  <HEAVY_ATOMS>
21

>  <ROTATABLE_BONDS>
1

$$$$
