GAMBOGIC_ACID
     RDKit          3D

 46 51  0  0  1  0  0  0  0  0999 V2000
    3.6041   -1.0537   -0.5038 O   0  0  0  0  0  0  0  0  0  0  0  0
    0.9462    0.1292   -0.2977 O   0  0  0  0  0  0  0  0  0  0  0  0
    5.6902    1.0735   -0.4954 O   0  0  0  0  0  0  0  0  0  0  0  0
    0.8493    4.2477   -0.7618 O   0  0  0  0  0  0  0  0  0  0  0  0
   -3.3406    0.0289    1.5597 O   0  0  0  0  0  0  0  0  0  0  0  0
   -1.5263    4.2728    0.1907 O   0  0  0  0  0  0  0  0  0  0  0  0
    4.4113   -3.4617    2.1869 O   0  0  0  0  0  0  0  0  0  0  0  0
    2.6860   -2.0026    2.3798 O   0  0  0  0  0  0  0  0  0  0  0  0
    2.0616    0.7273   -0.9512 C   0  0  2  0  0  0  0  0  0  0  0  0
    2.3763   -0.0269   -2.2847 C   0  0  2  0  0  0  0  0  0  0  0  0
    3.3734    0.3336   -0.2136 C   0  0  2  0  0  0  0  0  0  0  0  0
    2.9792   -1.3728   -1.7674 C   0  0  0  0  0  0  0  0  0  0  0  0
    3.3961    0.8357   -3.1023 C   0  0  0  0  0  0  0  0  0  0  0  0
    4.1155    1.8324   -2.1732 C   0  0  2  0  0  0  0  0  0  0  0  0
    2.0027    2.2278   -1.1225 C   0  0  0  0  0  0  0  0  0  0  0  0
    4.5336    1.0878   -0.9051 C   0  0  0  0  0  0  0  0  0  0  0  0
    3.0724    2.8031   -1.6942 C   0  0  0  0  0  0  0  0  0  0  0  0
    3.3769    0.5530    1.2897 C   0  0  0  0  0  0  0  0  0  0  0  0
    4.0582   -1.9384   -2.7047 C   0  0  0  0  0  0  0  0  0  0  0  0
    1.9828   -2.5110   -1.5177 C   0  0  0  0  0  0  0  0  0  0  0  0
    0.8627    3.0286   -0.6644 C   0  0  0  0  0  0  0  0  0  0  0  0
   -0.1342    0.8751    0.0534 C   0  0  0  0  0  0  0  0  0  0  0  0
   -0.2417    2.2536   -0.0869 C   0  0  0  0  0  0  0  0  0  0  0  0
    4.6625    0.0800    1.9107 C   0  0  0  0  0  0  0  0  0  0  0  0
   -1.1970    0.1593    0.6136 C   0  0  0  0  0  0  0  0  0  0  0  0
   -1.4052    2.9177    0.3265 C   0  0  0  0  0  0  0  0  0  0  0  0
    4.9269   -1.1523    2.3853 C   0  0  0  0  0  0  0  0  0  0  0  0
   -2.3595    0.8156    1.0261 C   0  0  0  0  0  0  0  0  0  0  0  0
   -2.4683    2.1977    0.8842 C   0  0  0  0  0  0  0  0  0  0  0  0
   -1.0945   -1.3268    0.7815 C   0  0  0  0  0  0  0  0  0  0  0  0
    6.2282   -1.5766    3.0045 C   0  0  0  0  0  0  0  0  0  0  0  0
   -3.6782    2.8754    1.3167 C   0  0  0  0  0  0  0  0  0  0  0  0
    3.8881   -2.2225    2.3274 C   0  0  0  0  0  0  0  0  0  0  0  0
   -4.5697    0.6409    2.0065 C   0  0  1  0  0  0  0  0  0  0  0  0
   -1.6051   -2.0835   -0.4166 C   0  0  0  0  0  0  0  0  0  0  0  0
   -4.6600    2.1398    1.8421 C   0  0  0  0  0  0  0  0  0  0  0  0
   -5.6965   -0.0244    1.2072 C   0  0  0  0  0  0  0  0  0  0  0  0
   -4.7116    0.2857    3.4912 C   0  0  0  0  0  0  0  0  0  0  0  0
   -1.6802   -3.4177   -0.5846 C   0  0  0  0  0  0  0  0  0  0  0  0
   -5.6123    0.3469   -0.2684 C   0  0  0  0  0  0  0  0  0  0  0  0
   -1.2106   -4.3495    0.5008 C   0  0  0  0  0  0  0  0  0  0  0  0
   -2.2029   -4.1097   -1.8115 C   0  0  0  0  0  0  0  0  0  0  0  0
   -6.7233   -0.3004   -1.0457 C   0  0  0  0  0  0  0  0  0  0  0  0
   -6.6914   -1.4732   -1.7064 C   0  0  0  0  0  0  0  0  0  0  0  0
   -5.4327   -2.2985   -1.7366 C   0  0  0  0  0  0  0  0  0  0  0  0
   -7.8427   -2.0670   -2.4678 C   0  0  0  0  0  0  0  0  0  0  0  0
  1 11  1  0
  1 12  1  0
  9  2  1  1
  2 22  1  0
  3 16  2  0
  4 21  2  0
  5 28  1  0
  5 34  1  0
  6 26  1  0
  7 33  1  0
  8 33  2  0
  9 10  1  0
  9 11  1  0
  9 15  1  0
 10 12  1  1
 10 13  1  0
 11 16  1  0
 11 18  1  1
 12 19  1  0
 12 20  1  0
 14 13  1  6
 14 16  1  0
 14 17  1  0
 15 17  2  0
 15 21  1  0
 18 24  1  0
 21 23  1  0
 22 23  2  0
 22 25  1  0
 23 26  1  0
 24 27  2  0
 25 28  2  0
 25 30  1  0
 26 29  2  0
 27 31  1  0
 27 33  1  0
 28 29  1  0
 29 32  1  0
 30 35  1  0
 32 36  2  0
 34 36  1  0
 34 37  1  0
 34 38  1  1
 35 39  2  3
 37 40  1  0
 39 41  1  0
 39 42  1  0
 40 43  1  0
 43 44  2  3
 44 45  1  0
 44 46  1  0
M  END
>  <KEY>
GAMBOGIC_ACID

>  <NAME>
Gambogic acid

>  <SOURCE>
pubchem-3d:9852185

>  <SMILES>
CC(C)=CCC[C@]1(C)C=Cc2c(O)c3c(c(CC=C(C)C)c2O1)O[C@]12C(=C[C@@H]4C[C@H]1C(C)(C)O[C@@]2(C/C=C(/C)C(=O)O)C4=O)C3=O

>  <FORMULA>
C38H44O8

>  <MW>
628.76

>  <HEAVY_ATOMS>
46

>  <ROTATABLE_BONDS>
8

$$$$
