GARCINOL
     RDKit          3D

 44 46  0  0  1  0  0  0  0  0999 V2000
   -2.6453    0.2127    2.1981 O   0  0  0  0  0  0  0  0  0  0  0  0
   -2.9387   -1.8098   -1.8238 O   0  0  0  0  0  0  0  0  0  0  0  0
    1.2153   -0.4676   -0.0596 O   0  0  0  0  0  0  0  0  0  0  0  0
   -1.0583   -3.4898   -1.8422 O   0  0  0  0  0  0  0  0  0  0  0  0
    4.3224   -2.4779   -2.6393 O   0  0  0  0  0  0  0  0  0  0  0  0
    5.0867   -3.8711   -0.3597 O   0  0  0  0  0  0  0  0  0  0  0  0
   -3.0905    1.3517   -1.0206 C   0  0  0  0  0  0  0  0  0  0  0  0
   -3.0007   -0.0032   -0.2003 C   0  0  1  0  0  0  0  0  0  0  0  0
   -1.6728    2.0078   -1.2671 C   0  0  1  0  0  0  0  0  0  0  0  0
   -0.7366    0.6787    0.7857 C   0  0  2  0  0  0  0  0  0  0  0  0
   -0.7668    1.9956   -0.0100 C   0  0  0  0  0  0  0  0  0  0  0  0
   -2.1804    0.2857    1.0629 C   0  0  0  0  0  0  0  0  0  0  0  0
    0.0146    0.8947    2.1097 C   0  0  0  0  0  0  0  0  0  0  0  0
   -4.3784   -0.5563    0.2324 C   0  0  0  0  0  0  0  0  0  0  0  0
   -2.3218   -1.1369   -0.9978 C   0  0  0  0  0  0  0  0  0  0  0  0
   -3.9342    2.3951   -0.2237 C   0  0  0  0  0  0  0  0  0  0  0  0
   -3.8356    1.1654   -2.3649 C   0  0  0  0  0  0  0  0  0  0  0  0
   -0.0121   -0.4118   -0.0016 C   0  0  0  0  0  0  0  0  0  0  0  0
   -0.9177    1.5291   -2.5172 C   0  0  0  0  0  0  0  0  0  0  0  0
   -0.8689   -1.3905   -0.7382 C   0  0  0  0  0  0  0  0  0  0  0  0
    1.3219    1.6911    1.9392 C   0  0  2  0  0  0  0  0  0  0  0  0
   -4.2140   -1.8365    0.9814 C   0  0  0  0  0  0  0  0  0  0  0  0
    0.3612    2.2858   -2.6866 C   0  0  0  0  0  0  0  0  0  0  0  0
    2.3191    1.2645    3.0424 C   0  0  0  0  0  0  0  0  0  0  0  0
   -0.3189   -2.5323   -1.1723 C   0  0  0  0  0  0  0  0  0  0  0  0
    1.1000    3.2007    1.8966 C   0  0  0  0  0  0  0  0  0  0  0  0
   -4.6241   -2.1122    2.2341 C   0  0  0  0  0  0  0  0  0  0  0  0
    0.5460    3.4544   -3.3297 C   0  0  0  0  0  0  0  0  0  0  0  0
    1.0993   -2.8824   -0.9625 C   0  0  0  0  0  0  0  0  0  0  0  0
    3.6799    1.8915    2.8936 C   0  0  0  0  0  0  0  0  0  0  0  0
    0.5090    3.8762    3.1035 C   0  0  0  0  0  0  0  0  0  0  0  0
    1.4258    3.9142    0.8058 C   0  0  0  0  0  0  0  0  0  0  0  0
   -4.4295   -3.4250    2.9385 C   0  0  0  0  0  0  0  0  0  0  0  0
   -5.3515   -1.0728    3.0448 C   0  0  0  0  0  0  0  0  0  0  0  0
   -0.6157    4.1618   -3.9752 C   0  0  0  0  0  0  0  0  0  0  0  0
    1.8611    4.1679   -3.4661 C   0  0  0  0  0  0  0  0  0  0  0  0
    4.7494    1.3759    2.2589 C   0  0  0  0  0  0  0  0  0  0  0  0
    2.0563   -2.5126   -1.9076 C   0  0  0  0  0  0  0  0  0  0  0  0
    1.4829   -3.5830    0.1811 C   0  0  0  0  0  0  0  0  0  0  0  0
    3.3969   -2.8431   -1.7090 C   0  0  0  0  0  0  0  0  0  0  0  0
    2.8235   -3.9137    0.3794 C   0  0  0  0  0  0  0  0  0  0  0  0
    6.0867    2.0510    2.1431 C   0  0  0  0  0  0  0  0  0  0  0  0
    4.6740    0.0205    1.6092 C   0  0  0  0  0  0  0  0  0  0  0  0
    3.7805   -3.5437   -0.5655 C   0  0  0  0  0  0  0  0  0  0  0  0
  1 12  2  0
  2 15  2  0
  3 18  2  0
  4 25  1  0
  5 40  1  0
  6 44  1  0
  7  8  1  0
  7  9  1  0
  7 16  1  0
  7 17  1  0
  8 12  1  0
  8 14  1  1
  8 15  1  0
  9 11  1  0
  9 19  1  6
 10 11  1  0
 10 12  1  0
 10 13  1  1
 10 18  1  0
 21 13  1  1
 14 22  1  0
 15 20  1  0
 18 20  1  0
 19 23  1  0
 20 25  2  0
 21 24  1  0
 21 26  1  0
 22 27  2  3
 23 28  2  3
 24 30  1  0
 25 29  1  0
 26 31  1  0
 26 32  2  0
 27 33  1  0
 27 34  1  0
 28 35  1  0
 28 36  1  0
 29 38  2  0
 29 39  1  0
 30 37  2  3
 37 42  1  0
 37 43  1  0
 38 40  1  0
 39 41  2  0
 40 44  2  0
 41 44  1  0
M  END
>  <KEY>
GARCINOL

>  <NAME>
Garcinol

>  <SOURCE>
pubchem-3d:5281560

>  <SMILES>
C=C(C)[C@@H](CC=C(C)C)C[C@@]12C[C@@H](CC=C(C)C)C(C)(C)[C@@](CC=C(C)C)(C(=O)/C(=C(\O)c3ccc(O)c(O)c3)C1=O)C2=O

>  <FORMULA>
C38H50O6

>  <MW>
602.81

>  <HEAVY_ATOMS>
44

>  <ROTATABLE_BONDS>
10

$$$$
