GENISTEIN
     RDKit          3D

 20 22  0  0  0  0  0  0  0  0999 V2000
   -1.3360    0.1820   -3.4360 C   0  0  0  0  0  0  0  0  0  0  0  0
   -0.3110    0.2130   -4.3680 C   0  0  0  0  0  0  0  0  0  0  0  0
   -0.6010    0.4090   -5.6790 O   0  0  0  0  0  0  0  0  0  0  0  0
    1.0120    0.0470   -3.9730 C   0  0  0  0  0  0  0  0  0  0  0  0
    1.3200   -0.1480   -2.6400 C   0  0  0  0  0  0  0  0  0  0  0  0
    2.6100   -0.3120   -2.2520 O   0  0  0  0  0  0  0  0  0  0  0  0
    0.2890   -0.1760   -1.6930 C   0  0  0  0  0  0  0  0  0  0  0  0
    0.5650   -0.3620   -0.2600 C   0  0  0  0  0  0  0  0  0  0  0  0
    1.6600   -0.7160    0.1430 O   0  0  0  0  0  0  0  0  0  0  0  0
   -0.5560   -0.1020    0.6620 C   0  0  0  0  0  0  0  0  0  0  0  0
   -1.8010    0.0430    0.1390 C   0  0  0  0  0  0  0  0  0  0  0  0
   -2.0350   -0.0560   -1.1740 O   0  0  0  0  0  0  0  0  0  0  0  0
   -1.0490   -0.0150   -2.0940 C   0  0  0  0  0  0  0  0  0  0  0  0
   -0.3280    0.0020    2.1240 C   0  0  0  0  0  0  0  0  0  0  0  0
   -0.9720   -0.8740    2.9960 C   0  0  0  0  0  0  0  0  0  0  0  0
   -0.7580   -0.7740    4.3550 C   0  0  0  0  0  0  0  0  0  0  0  0
    0.0970    0.1970    4.8540 C   0  0  0  0  0  0  0  0  0  0  0  0
    0.3050    0.2930    6.1940 O   0  0  0  0  0  0  0  0  0  0  0  0
    0.7350    1.0750    3.9890 C   0  0  0  0  0  0  0  0  0  0  0  0
    0.5290    0.9770    2.6290 C   0  0  0  0  0  0  0  0  0  0  0  0
  1  2  1  0
  1 13  2  0
  2  3  1  0
  2  4  2  0
  4  5  1  0
  5  6  1  0
  5  7  2  0
  7  8  1  0
  7 13  1  0
  8  9  2  0
  8 10  1  0
 10 11  2  0
 10 14  1  0
 11 12  1  0
 12 13  1  0
 14 15  1  0
 14 20  2  0
 15 16  2  0
 16 17  1  0
 17 18  1  0
 17 19  2  0
 19 20  1  0
M  END
>  <KEY>
GENISTEIN

>  <NAME>
Genistein

>  <SOURCE>
rcsb-ccd:GEN

>  <SMILES>
O=c1c(-c2ccc(O)cc2)coc2cc(O)cc(O)c12

>  <FORMULA>
C15H10O5

>  <MW>
270.24

>  <HEAVY_ATOMS>
20

>  <ROTATABLE_BONDS>
1

$$$$
