GERANIOL
     RDKit          3D

 11 10  0  0  0  0  0  0  0  0999 V2000
    3.1550    0.3340    0.0470 C   0  0  0  0  0  0  0  0  0  0  0  0
    2.3560   -0.7030    0.0990 C   0  0  0  0  0  0  0  0  0  0  0  0
    0.9130   -0.5230    0.4960 C   0  0  0  0  0  0  0  0  0  0  0  0
    0.0080   -1.0230   -0.6310 C   0  0  0  0  0  0  0  0  0  0  0  0
   -1.4350   -0.8440   -0.2340 C   0  0  0  0  0  0  0  0  0  0  0  0
   -2.0880    0.2280   -0.6080 C   0  0  0  0  0  0  0  0  0  0  0  0
   -3.5310    0.4080   -0.2110 C   0  0  0  0  0  0  0  0  0  0  0  0
   -2.1260   -1.8970    0.5930 C   0  0  0  0  0  0  0  0  0  0  0  0
    2.6040    1.7210    0.2530 C   0  0  0  0  0  0  0  0  0  0  0  0
   -3.7350    1.7450    0.2510 O   0  0  0  0  0  0  0  0  0  0  0  0
    4.6270    0.1380   -0.2120 C   0  0  0  0  0  0  0  0  0  0  0  0
  1  2  2  3
  2  3  1  0
  3  4  1  0
  4  5  1  0
  5  6  2  0
  6  7  1  0
  8  5  1  0
  9  1  1  0
 10  7  1  0
 11  1  1  0
M  END
>  <KEY>
GERANIOL

>  <NAME>
Geraniol

>  <SOURCE>
rcsb-ccd:64Z

>  <SMILES>
CC(C)=CCC/C(C)=C/CO

>  <FORMULA>
C10H18O

>  <MW>
154.25

>  <HEAVY_ATOMS>
11

>  <ROTATABLE_BONDS>
4

$$$$
