GINGEROL
     RDKit          3D

 21 21  0  0  1  0  0  0  0  0999 V2000
    3.6966    1.8593   -0.2515 O   0  0  0  0  0  0  0  0  0  0  0  0
    1.0161    1.1038   -1.6014 O   0  0  0  0  0  0  0  0  0  0  0  0
   -5.5607   -2.0581   -0.1330 O   0  0  0  0  0  0  0  0  0  0  0  0
   -6.8933   -0.0103    1.1927 O   0  0  0  0  0  0  0  0  0  0  0  0
    4.4402   -0.3104    0.5010 C   0  0  0  0  0  0  0  0  0  0  0  0
    3.3340    0.4810   -0.2080 C   0  0  1  0  0  0  0  0  0  0  0  0
    5.8090   -0.1047   -0.1586 C   0  0  0  0  0  0  0  0  0  0  0  0
    1.9651    0.3258    0.4593 C   0  0  0  0  0  0  0  0  0  0  0  0
    6.9416   -0.8553    0.5495 C   0  0  0  0  0  0  0  0  0  0  0  0
    0.8114    0.7074   -0.4543 C   0  0  0  0  0  0  0  0  0  0  0  0
    8.3194   -0.6018   -0.0624 C   0  0  0  0  0  0  0  0  0  0  0  0
   -0.5912    0.5285    0.1085 C   0  0  0  0  0  0  0  0  0  0  0  0
   -1.7011    0.8597   -0.8910 C   0  0  0  0  0  0  0  0  0  0  0  0
   -3.0859    0.6243   -0.3368 C   0  0  0  0  0  0  0  0  0  0  0  0
    9.4122   -1.3128    0.7213 C   0  0  0  0  0  0  0  0  0  0  0  0
   -3.6962   -0.6205   -0.4898 C   0  0  0  0  0  0  0  0  0  0  0  0
   -3.7546    1.6519    0.3284 C   0  0  0  0  0  0  0  0  0  0  0  0
   -4.9752   -0.8380    0.0226 C   0  0  0  0  0  0  0  0  0  0  0  0
   -5.0337    1.4345    0.8405 C   0  0  0  0  0  0  0  0  0  0  0  0
   -5.6440    0.1896    0.6877 C   0  0  0  0  0  0  0  0  0  0  0  0
   -4.8098   -3.0539   -0.8248 C   0  0  0  0  0  0  0  0  0  0  0  0
  6  1  1  1
  2 10  2  0
  3 18  1  0
  3 21  1  0
  4 20  1  0
  5  6  1  0
  5  7  1  0
  6  8  1  0
  7  9  1  0
  8 10  1  0
  9 11  1  0
 10 12  1  0
 11 15  1  0
 12 13  1  0
 13 14  1  0
 14 16  2  0
 14 17  1  0
 16 18  1  0
 17 19  2  0
 18 20  2  0
 19 20  1  0
M  END
>  <KEY>
GINGEROL

>  <NAME>
6-Gingerol

>  <SOURCE>
pubchem-3d:442793

>  <SMILES>
CCCCC[C@H](O)CC(=O)CCc1ccc(O)c(OC)c1

>  <FORMULA>
C17H26O4

>  <MW>
294.39

>  <HEAVY_ATOMS>
21

>  <ROTATABLE_BONDS>
10

$$$$
