GINSENOSIDE_RG3
     RDKit          3D

 55 60  0  0  0  0  0  0  0  0999 V2000
   10.2986   -3.3250    3.0052 C   0  0  0  0  0  0  0  0  0  0  0  0
   10.2550   -1.9643    3.6439 C   0  0  0  0  0  0  0  0  0  0  0  0
    9.1381   -1.2977    3.9958 C   0  0  0  0  0  0  0  0  0  0  0  0
    7.7040   -1.7206    3.8281 C   0  0  0  0  0  0  0  0  0  0  0  0
    6.8234   -0.6797    3.1136 C   0  0  0  0  0  0  0  0  0  0  0  0
    7.0742   -0.4439    1.5981 C   0  0  1  0  0  0  0  0  0  0  0  0
    7.3332   -1.7267    0.8014 C   0  0  0  0  0  0  0  0  0  0  0  0
    5.9255    0.4226    0.9818 C   0  0  1  0  0  0  0  0  0  0  0  0
    6.3963    1.2877   -0.2247 C   0  0  0  0  0  0  0  0  0  0  0  0
    5.2223    1.3914   -1.2141 C   0  0  0  0  0  0  0  0  0  0  0  0
    3.9900    0.8580   -0.4557 C   0  0  2  0  0  0  0  0  0  0  0  0
    4.6537   -0.2607    0.4091 C   0  0  2  0  0  0  0  0  0  0  0  0
    3.6430   -0.9075    1.3569 C   0  0  1  0  0  0  0  0  0  0  0  0
    2.3917   -1.4124    0.6082 C   0  0  0  0  0  0  0  0  0  0  0  0
    1.7464   -0.3846   -0.3548 C   0  0  1  0  0  0  0  0  0  0  0  0
    2.8170    0.2255   -1.3469 C   0  0  1  0  0  0  0  0  0  0  0  0
    2.1423    1.2993   -2.2406 C   0  0  0  0  0  0  0  0  0  0  0  0
    0.8273    0.8532   -2.8915 C   0  0  0  0  0  0  0  0  0  0  0  0
   -0.1886    0.3807   -1.8299 C   0  0  2  0  0  0  0  0  0  0  0  0
    0.3667   -0.8453   -1.0088 C   0  0  2  0  0  0  0  0  0  0  0  0
   -0.6522   -1.1499    0.1312 C   0  0  0  0  0  0  0  0  0  0  0  0
   -2.0977   -1.3064   -0.3374 C   0  0  0  0  0  0  0  0  0  0  0  0
   -2.5922   -0.0953   -1.1293 C   0  0  1  0  0  0  0  0  0  0  0  0
   -1.6712    0.2541   -2.3432 C   0  0  0  0  0  0  0  0  0  0  0  0
   -2.1540    1.6255   -2.8970 C   0  0  0  0  0  0  0  0  0  0  0  0
   -1.8489   -0.7524   -3.4983 C   0  0  0  0  0  0  0  0  0  0  0  0
   -3.9287   -0.3144   -1.6060 O   0  0  0  0  0  0  0  0  0  0  0  0
   -4.9315   -0.2697   -0.5888 C   0  0  1  0  0  0  0  0  0  0  0  0
   -6.0774    0.6665   -1.0565 C   0  0  1  0  0  0  0  0  0  0  0  0
   -7.2272   -0.1467   -1.6673 C   0  0  2  0  0  0  0  0  0  0  0  0
   -6.6774   -1.3541   -2.4247 C   0  0  1  0  0  0  0  0  0  0  0  0
   -6.0040   -2.2854   -1.4045 C   0  0  2  0  0  0  0  0  0  0  0  0
   -5.3874   -1.5945   -0.2992 O   0  0  0  0  0  0  0  0  0  0  0  0
   -4.9848   -3.2234   -2.0630 C   0  0  0  0  0  0  0  0  0  0  0  0
   -4.4669   -4.1320   -1.0924 O   0  0  0  0  0  0  0  0  0  0  0  0
   -7.7746   -1.9892   -3.0954 O   0  0  0  0  0  0  0  0  0  0  0  0
   -8.0235    0.6696   -2.5497 O   0  0  0  0  0  0  0  0  0  0  0  0
   -6.5586    1.4302    0.0721 O   0  0  0  0  0  0  0  0  0  0  0  0
   -7.2910    2.5981   -0.3111 C   0  0  1  0  0  0  0  0  0  0  0  0
   -8.8077    2.3836   -0.0663 C   0  0  1  0  0  0  0  0  0  0  0  0
   -9.3103    3.2374    1.0965 C   0  0  2  0  0  0  0  0  0  0  0  0
   -8.3042    3.1239    2.2342 C   0  0  1  0  0  0  0  0  0  0  0  0
   -6.9825    3.7718    1.7939 C   0  0  2  0  0  0  0  0  0  0  0  0
   -6.7608    3.7299    0.3792 O   0  0  0  0  0  0  0  0  0  0  0  0
   -5.7932    3.1919    2.5736 C   0  0  0  0  0  0  0  0  0  0  0  0
   -5.8633    3.4841    3.9676 O   0  0  0  0  0  0  0  0  0  0  0  0
   -8.7942    3.7494    3.4247 O   0  0  0  0  0  0  0  0  0  0  0  0
  -10.5900    2.7615    1.5456 O   0  0  0  0  0  0  0  0  0  0  0  0
   -9.5935    2.6896   -1.2307 O   0  0  0  0  0  0  0  0  0  0  0  0
    0.5231   -2.1359   -1.8487 C   0  0  0  0  0  0  0  0  0  0  0  0
    3.3854   -0.8602   -2.3090 C   0  0  0  0  0  0  0  0  0  0  0  0
    4.2314   -2.0447    1.9842 O   0  0  0  0  0  0  0  0  0  0  0  0
    3.4806    2.0477    0.4292 C   0  0  0  0  0  0  0  0  0  0  0  0
    8.2711    0.3580    1.5128 O   0  0  0  0  0  0  0  0  0  0  0  0
   11.6139   -1.3594    3.8911 C   0  0  0  0  0  0  0  0  0  0  0  0
  1  2  1  0
  2  3  2  3
  3  4  1  0
  4  5  1  0
  5  6  1  0
  6  7  1  6
  6  8  1  0
  8  9  1  6
  9 10  1  0
 10 11  1  0
 11 12  1  0
 12 13  1  1
 13 14  1  0
 15 14  1  6
 15 16  1  0
 16 17  1  0
 17 18  1  0
 19 18  1  6
 19 20  1  0
 20 21  1  0
 21 22  1  0
 22 23  1  0
 23 24  1  0
 24 25  1  0
 24 26  1  0
 23 27  1  6
 28 27  1  6
 28 29  1  0
 29 30  1  0
 30 31  1  0
 31 32  1  0
 32 33  1  0
 32 34  1  6
 34 35  1  0
 31 36  1  1
 30 37  1  6
 29 38  1  1
 39 38  1  1
 39 40  1  0
 40 41  1  0
 41 42  1  0
 42 43  1  0
 43 44  1  0
 43 45  1  1
 45 46  1  0
 42 47  1  1
 41 48  1  1
 40 49  1  6
 20 50  1  6
 16 51  1  6
 13 52  1  6
 11 53  1  1
  6 54  1  0
  2 55  1  0
 12  8  1  0
 16 11  1  0
 20 15  1  0
 24 19  1  0
 33 28  1  0
 44 39  1  0
M  END
>  <KEY>
GINSENOSIDE_RG3

>  <NAME>
Ginsenoside Rg3

>  <SOURCE>
rdkit-etkdg:9918693

>  <SMILES>
CC(C)=CCC[C@](C)(O)[C@H]1CC[C@]2(C)[C@@H]1[C@H](O)C[C@@H]1[C@@]3(C)CC[C@H](O[C@@H]4O[C@H](CO)[C@@H](O)[C@H](O)[C@H]4O[C@@H]4O[C@H](CO)[C@@H](O)[C@H](O)[C@H]4O)C(C)(C)[C@@H]3CC[C@]12C

>  <FORMULA>
C42H72O13

>  <MW>
785.03

>  <HEAVY_ATOMS>
55

>  <ROTATABLE_BONDS>
10

$$$$
