GINSENOSIDE_RH2
     RDKit          3D

 44 48  0  0  1  0  0  0  0  0999 V2000
   -2.9700   -0.4280    1.5770 C   0  0  2  0  0  0  0  0  0  0  0  0
   -3.6610    0.6700    0.7310 C   0  0  1  0  0  0  0  0  0  0  0  0
   -1.1520   -2.1490    1.5690 C   0  0  0  0  0  0  0  0  0  0  0  0
   -4.8940    1.0100    1.5710 C   0  0  2  0  0  0  0  0  0  0  0  0
    0.0890   -2.6460    0.8090 C   0  0  0  0  0  0  0  0  0  0  0  0
    2.4710   -1.8950    0.3620 C   0  0  0  0  0  0  0  0  0  0  0  0
   -5.2660   -0.3170    2.2820 C   0  0  0  0  0  0  0  0  0  0  0  0
   -2.4370   -1.6630   -0.4990 C   0  0  0  0  0  0  0  0  0  0  0  0
    0.2690   -0.8060   -1.6280 C   0  0  0  0  0  0  0  0  0  0  0  0
    2.7890    0.3810   -0.7170 C   0  0  0  0  0  0  0  0  0  0  0  0
   -1.8370   -1.0390    0.7700 C   0  0  1  0  0  0  0  0  0  0  0  0
   -0.8520    0.0820    0.4480 C   0  0  1  0  0  0  0  0  0  0  0  0
    0.4640   -0.3780   -0.1790 C   0  0  1  0  0  0  0  0  0  0  0  0
    1.0600   -1.4720    0.6970 C   0  0  1  0  0  0  0  0  0  0  0  0
   -1.5030    1.2090   -0.3420 C   0  0  0  0  0  0  0  0  0  0  0  0
   -2.6940    1.7950    0.4470 C   0  0  1  0  0  0  0  0  0  0  0  0
   -4.1680   -1.3440    1.8820 C   0  0  0  0  0  0  0  0  0  0  0  0
    1.4360    0.8180   -0.1640 C   0  0  0  0  0  0  0  0  0  0  0  0
   -2.4650    0.1480    2.9060 C   0  0  0  0  0  0  0  0  0  0  0  0
    3.4030   -0.7000    0.1620 C   0  0  2  0  0  0  0  0  0  0  0  0
   -6.0440    1.4550    0.6630 C   0  0  1  0  0  0  0  0  0  0  0  0
    2.5420   -2.8230   -0.8510 C   0  0  0  0  0  0  0  0  0  0  0  0
    3.0360   -2.6860    1.5690 C   0  0  0  0  0  0  0  0  0  0  0  0
   -6.4030    0.3200   -0.2980 C   0  0  0  0  0  0  0  0  0  0  0  0
   -7.2630    1.8040    1.5190 C   0  0  0  0  0  0  0  0  0  0  0  0
   -7.5750    0.7530   -1.1820 C   0  0  0  0  0  0  0  0  0  0  0  0
    5.7820   -0.4310   -0.0200 C   0  0  2  0  0  0  0  0  0  0  0  0
    7.0330   -1.0790   -0.6190 C   0  0  1  0  0  0  0  0  0  0  0  0
   -7.9290   -0.3650   -2.1290 C   0  0  0  0  0  0  0  0  0  0  0  0
    8.2640   -0.2600   -0.2190 C   0  0  2  0  0  0  0  0  0  0  0  0
    6.7850    1.7460   -0.0870 C   0  0  1  0  0  0  0  0  0  0  0  0
    8.0770    1.1860   -0.6880 C   0  0  1  0  0  0  0  0  0  0  0  0
   -9.1540   -0.8250   -2.1700 C   0  0  0  0  0  0  0  0  0  0  0  0
    6.5600    3.1700   -0.5980 C   0  0  0  0  0  0  0  0  0  0  0  0
  -10.2100   -0.2370   -1.2700 C   0  0  0  0  0  0  0  0  0  0  0  0
   -9.5080   -1.9430   -3.1170 C   0  0  0  0  0  0  0  0  0  0  0  0
   -3.3320    2.7960   -0.3570 O   0  0  0  0  0  0  0  0  0  0  0  0
    4.6240   -1.1570   -0.4350 O   0  0  0  0  0  0  0  0  0  0  0  0
   -5.6420    2.6040   -0.0850 O   0  0  0  0  0  0  0  0  0  0  0  0
    5.6840    0.9210   -0.4720 O   0  0  0  0  0  0  0  0  0  0  0  0
    7.1650   -2.4130   -0.1230 O   0  0  0  0  0  0  0  0  0  0  0  0
    9.4280   -0.8150   -0.8340 O   0  0  0  0  0  0  0  0  0  0  0  0
    9.1870    1.9760   -0.2570 O   0  0  0  0  0  0  0  0  0  0  0  0
    5.4190    3.7340    0.0510 O   0  0  0  0  0  0  0  0  0  0  0  0
  1 19  1  1
  1 11  1  0
  1 17  1  0
  2  1  1  0
  3  5  1  0
  4  2  1  0
  4  7  1  6
  6 22  1  0
  6 23  1  0
  7 17  1  0
 11  8  1  6
 13  9  1  6
 10 20  1  0
 11  3  1  0
 12 13  1  0
 12 11  1  0
 13 14  1  0
 14  6  1  0
 14  5  1  6
 12 15  1  6
 16 15  1  0
  2 16  1  1
 18 10  1  0
 18 13  1  0
 20 38  1  6
 20  6  1  0
 21 25  1  1
 21  4  1  0
 24 21  1  0
 26 24  1  0
 27 40  1  0
 28 41  1  1
 28 27  1  0
 29 26  1  0
 30 32  1  0
 30 28  1  0
 31 40  1  0
 32 31  1  0
 33 29  2  3
 31 34  1  6
 35 33  1  0
 36 33  1  0
 16 37  1  6
 27 38  1  6
 39 21  1  0
 30 42  1  6
 32 43  1  1
 44 34  1  0
M  END
>  <KEY>
GINSENOSIDE_RH2

>  <NAME>
Ginsenoside Rh2

>  <SOURCE>
rcsb-ccd:8YG

>  <SMILES>
CC(C)=CCC[C@](C)(O)[C@H]1CC[C@]2(C)[C@@H]1[C@H](O)C[C@@H]1[C@@]3(C)CC[C@H](O[C@@H]4O[C@H](CO)[C@@H](O)[C@H](O)[C@H]4O)C(C)(C)[C@@H]3CC[C@]12C

>  <FORMULA>
C36H62O8

>  <MW>
622.88

>  <HEAVY_ATOMS>
44

>  <ROTATABLE_BONDS>
7

$$$$
