GLABRIDIN
     RDKit          3D

 24 27  0  0  1  0  0  0  0  0999 V2000
    6.7140    0.4650    0.0760 C   0  0  0  0  0  0  0  0  0  0  0  0
    5.2560    0.2600   -0.3400 C   0  0  0  0  0  0  0  0  0  0  0  0
    4.5270    1.5760   -0.2610 C   0  0  0  0  0  0  0  0  0  0  0  0
    3.2190    1.5990   -0.0120 C   0  0  0  0  0  0  0  0  0  0  0  0
    2.5270    0.3090    0.1920 C   0  0  0  0  0  0  0  0  0  0  0  0
    3.3000   -0.8270    0.4600 C   0  0  0  0  0  0  0  0  0  0  0  0
    2.6790   -2.0470    0.6540 C   0  0  0  0  0  0  0  0  0  0  0  0
    1.3010   -2.1350    0.5820 C   0  0  0  0  0  0  0  0  0  0  0  0
    0.5280   -1.0140    0.3190 C   0  0  0  0  0  0  0  0  0  0  0  0
    1.1330    0.2140    0.1240 C   0  0  0  0  0  0  0  0  0  0  0  0
    0.4120    1.3370   -0.1240 O   0  0  0  0  0  0  0  0  0  0  0  0
   -0.9410    1.1820   -0.5520 C   0  0  0  0  0  0  0  0  0  0  0  0
   -1.6390    0.1990    0.3970 C   0  0  2  0  0  0  0  0  0  0  0  0
   -0.9700   -1.1690    0.2480 C   0  0  0  0  0  0  0  0  0  0  0  0
   -3.0980    0.0940    0.0370 C   0  0  0  0  0  0  0  0  0  0  0  0
   -3.4690   -0.3420   -1.2220 C   0  0  0  0  0  0  0  0  0  0  0  0
   -4.8060   -0.4400   -1.5550 C   0  0  0  0  0  0  0  0  0  0  0  0
   -5.7810   -0.1010   -0.6260 C   0  0  0  0  0  0  0  0  0  0  0  0
   -5.4110    0.3360    0.6360 C   0  0  0  0  0  0  0  0  0  0  0  0
   -4.0690    0.4280    0.9700 C   0  0  0  0  0  0  0  0  0  0  0  0
   -3.7030    0.8510    2.2090 O   0  0  0  0  0  0  0  0  0  0  0  0
   -7.0960   -0.1970   -0.9550 O   0  0  0  0  0  0  0  0  0  0  0  0
    4.6500   -0.7030    0.5230 O   0  0  0  0  0  0  0  0  0  0  0  0
    5.2100   -0.2550   -1.7800 C   0  0  0  0  0  0  0  0  0  0  0  0
  1  2  1  0
  2  3  1  0
  2 23  1  0
  3  4  2  0
  4  5  1  0
  5 10  1  0
  6  7  1  0
  6  5  2  0
  7  8  2  0
  8  9  1  0
  9 14  1  0
 10  9  2  0
 10 11  1  0
 11 12  1  0
 12 13  1  0
 13 15  1  6
 14 13  1  0
 15 16  1  0
 15 20  2  0
 16 17  2  0
 17 18  1  0
 18 22  1  0
 19 18  2  0
 20 19  1  0
 21 20  1  0
 23  6  1  0
 24  2  1  0
M  END
>  <KEY>
GLABRIDIN

>  <NAME>
Glabridin

>  <SOURCE>
rcsb-ccd:GBJ

>  <SMILES>
CC1(C)C=Cc2c(ccc3c2OC[C@@H](c2ccc(O)cc2O)C3)O1

>  <FORMULA>
C20H20O4

>  <MW>
324.38

>  <HEAVY_ATOMS>
24

>  <ROTATABLE_BONDS>
1

$$$$
