GLYCYRRHETINIC_ACID
     RDKit          3D

 34 38  0  0  1  0  0  0  0  0999 V2000
   -3.4170   -1.9500    0.2160 C   0  0  0  0  0  0  0  0  0  0  0  0
   -4.9370   -2.0630    0.1160 C   0  0  0  0  0  0  0  0  0  0  0  0
   -5.5900   -1.0060    1.0010 C   0  0  1  0  0  0  0  0  0  0  0  0
   -5.1620    0.4050    0.5830 C   0  0  0  0  0  0  0  0  0  0  0  0
   -3.6550    0.5130    0.4890 C   0  0  2  0  0  0  0  0  0  0  0  0
   -3.1860    1.8830    0.0050 C   0  0  0  0  0  0  0  0  0  0  0  0
   -1.6990    2.0200    0.3740 C   0  0  0  0  0  0  0  0  0  0  0  0
   -0.8770    0.9290   -0.2960 C   0  0  2  0  0  0  0  0  0  0  0  0
   -1.4580   -0.4610   -0.0710 C   0  0  1  0  0  0  0  0  0  0  0  0
   -2.9610   -0.5800   -0.3200 C   0  0  1  0  0  0  0  0  0  0  0  0
   -0.6580   -1.4280   -0.9170 C   0  0  0  0  0  0  0  0  0  0  0  0
    0.8060   -1.2970   -0.8260 C   0  0  0  0  0  0  0  0  0  0  0  0
    1.3700   -0.1910   -0.3290 C   0  0  0  0  0  0  0  0  0  0  0  0
    0.5770    0.9680    0.1930 C   0  0  1  0  0  0  0  0  0  0  0  0
    1.2150    2.3110   -0.1400 C   0  0  0  0  0  0  0  0  0  0  0  0
    2.7310    2.2880    0.0580 C   0  0  0  0  0  0  0  0  0  0  0  0
    3.3640    1.2030   -0.8070 C   0  0  2  0  0  0  0  0  0  0  0  0
    2.8890   -0.1650   -0.3210 C   0  0  1  0  0  0  0  0  0  0  0  0
   -3.3060   -0.5150   -1.8030 C   0  0  0  0  0  0  0  0  0  0  0  0
    3.4120   -0.4560    1.0800 C   0  0  0  0  0  0  0  0  0  0  0  0
    4.9400   -0.3930    1.1200 C   0  0  2  0  0  0  0  0  0  0  0  0
    5.4070    0.9840    0.6510 C   0  0  0  0  0  0  0  0  0  0  0  0
    4.8880    1.2930   -0.7460 C   0  0  0  0  0  0  0  0  0  0  0  0
   -5.8830    0.8220   -0.6950 C   0  0  0  0  0  0  0  0  0  0  0  0
   -5.6450    1.3520    1.7090 C   0  0  0  0  0  0  0  0  0  0  0  0
   -0.8260    1.2200   -1.8050 C   0  0  0  0  0  0  0  0  0  0  0  0
    0.5420    0.8460    1.7240 C   0  0  0  0  0  0  0  0  0  0  0  0
    2.9410    1.3880   -2.2690 C   0  0  0  0  0  0  0  0  0  0  0  0
    5.5360   -1.4740    0.2610 C   0  0  0  0  0  0  0  0  0  0  0  0
    5.4010   -0.6030    2.5700 C   0  0  0  0  0  0  0  0  0  0  0  0
   -7.0140   -1.1120    0.8970 O   0  0  0  0  0  0  0  0  0  0  0  0
   -1.1490   -2.2870   -1.6150 O   0  0  0  0  0  0  0  0  0  0  0  0
    4.8140   -2.2370   -0.3370 O   0  0  0  0  0  0  0  0  0  0  0  0
    6.8690   -1.5920    0.1590 O   0  0  0  0  0  0  0  0  0  0  0  0
  1  2  1  0
  1 10  1  0
  2  3  1  0
  3  4  1  0
  3 31  1  6
  4  5  1  0
  4 24  1  0
  4 25  1  0
  5  6  1  6
  5 10  1  0
  6  7  1  0
  7  8  1  0
  8  9  1  0
  8 14  1  0
  8 26  1  6
  9 10  1  0
  9 11  1  6
 10 19  1  6
 11 12  1  0
 11 32  2  0
 12 13  2  0
 13 14  1  0
 13 18  1  0
 14 15  1  0
 14 27  1  1
 15 16  1  0
 16 17  1  0
 17 18  1  0
 17 23  1  0
 17 28  1  6
 18 20  1  1
 20 21  1  0
 21 22  1  0
 21 29  1  0
 21 30  1  1
 22 23  1  0
 29 33  2  0
 29 34  1  0
M  END
>  <KEY>
GLYCYRRHETINIC_ACID

>  <NAME>
Glycyrrhetinic acid

>  <SOURCE>
rcsb-ccd:CBW

>  <SMILES>
CC1(C)[C@@H](O)CC[C@]2(C)[C@H]3C(=O)C=C4[C@@H]5C[C@@](C)(C(=O)O)CC[C@]5(C)CC[C@@]4(C)[C@]3(C)CC[C@@H]12

>  <FORMULA>
C30H46O4

>  <MW>
470.69

>  <HEAVY_ATOMS>
34

>  <ROTATABLE_BONDS>
1

$$$$
