GOSSYPOL
     RDKit          3D

 38 41  0  0  0  0  0  0  0  0999 V2000
   -0.7340    0.5740    0.0660 C   0  0  0  0  0  0  0  0  0  0  0  0
    0.7340    0.5640   -0.1280 C   0  0  0  0  0  0  0  0  0  0  0  0
   -3.4930    0.6280    0.4470 C   0  0  0  0  0  0  0  0  0  0  0  0
    3.4910    0.5720   -0.5200 C   0  0  0  0  0  0  0  0  0  0  0  0
   -2.9200   -0.2980   -0.4560 C   0  0  0  0  0  0  0  0  0  0  0  0
    2.9200   -0.2490    0.4820 C   0  0  0  0  0  0  0  0  0  0  0  0
   -4.8870    0.6420    0.6360 C   0  0  0  0  0  0  0  0  0  0  0  0
    4.8850    0.5670   -0.7080 C   0  0  0  0  0  0  0  0  0  0  0  0
   -1.3140    1.4840    0.9620 C   0  0  0  0  0  0  0  0  0  0  0  0
    1.3130    1.3770   -1.1130 C   0  0  0  0  0  0  0  0  0  0  0  0
   -5.4970    1.6290    1.5980 C   0  0  0  0  0  0  0  0  0  0  0  0
    5.4940    1.4460   -1.7710 C   0  0  0  0  0  0  0  0  0  0  0  0
   -1.5330   -0.3160   -0.6470 C   0  0  0  0  0  0  0  0  0  0  0  0
    1.5320   -0.2470    0.6730 C   0  0  0  0  0  0  0  0  0  0  0  0
   -2.6590    1.5150    1.1530 C   0  0  0  0  0  0  0  0  0  0  0  0
    2.6580    1.3850   -1.3100 C   0  0  0  0  0  0  0  0  0  0  0  0
   -3.7980   -1.2250   -1.1760 C   0  0  0  0  0  0  0  0  0  0  0  0
    3.7980   -1.0910    1.2980 C   0  0  0  0  0  0  0  0  0  0  0  0
   -5.6930   -0.2250   -0.0380 C   0  0  0  0  0  0  0  0  0  0  0  0
    5.6920   -0.2190    0.0560 C   0  0  0  0  0  0  0  0  0  0  0  0
   -5.1750   -1.1600   -0.9420 C   0  0  0  0  0  0  0  0  0  0  0  0
    5.1750   -1.0530    1.0560 C   0  0  0  0  0  0  0  0  0  0  0  0
   -0.4330    2.4390    1.7250 C   0  0  0  0  0  0  0  0  0  0  0  0
    0.4320    2.2520   -1.9670 C   0  0  0  0  0  0  0  0  0  0  0  0
   -6.4340    2.5690    0.8370 C   0  0  0  0  0  0  0  0  0  0  0  0
   -6.2890    0.8760    2.6680 C   0  0  0  0  0  0  0  0  0  0  0  0
    6.4290    2.4640   -1.1170 C   0  0  0  0  0  0  0  0  0  0  0  0
    6.2880    0.5820   -2.7530 C   0  0  0  0  0  0  0  0  0  0  0  0
   -3.2460   -2.1970   -2.1170 C   0  0  0  0  0  0  0  0  0  0  0  0
    3.2480   -1.9520    2.3430 C   0  0  0  0  0  0  0  0  0  0  0  0
   -0.9720   -1.1930   -1.5190 O   0  0  0  0  0  0  0  0  0  0  0  0
    0.9720   -1.0300    1.6310 O   0  0  0  0  0  0  0  0  0  0  0  0
   -7.0360   -0.1800    0.1720 O   0  0  0  0  0  0  0  0  0  0  0  0
    7.0350   -0.1950   -0.1560 O   0  0  0  0  0  0  0  0  0  0  0  0
   -6.0110   -2.0040   -1.5940 O   0  0  0  0  0  0  0  0  0  0  0  0
    6.0120   -1.8210    1.7950 O   0  0  0  0  0  0  0  0  0  0  0  0
   -3.9720   -3.0220   -2.6340 O   0  0  0  0  0  0  0  0  0  0  0  0
    3.9930   -2.5720    3.0730 O   0  0  0  0  0  0  0  0  0  0  0  0
  1 13  2  0
  1  2  1  0
  2 10  1  0
  3  5  1  0
  4 16  1  0
  4  8  2  0
  5 17  2  0
  5 13  1  0
  6  4  1  0
  7 19  1  0
  7  3  2  0
  8 12  1  0
  9  1  1  0
 10 24  1  0
 10 16  2  0
 11 25  1  0
 11  7  1  0
 12 27  1  0
 12 28  1  0
 13 31  1  0
 14  2  2  0
 14  6  1  0
 15  3  1  0
 15  9  2  0
 17 29  1  0
 18  6  2  0
 18 22  1  0
 19 21  2  0
 20  8  1  0
 20 34  1  0
 21 35  1  0
 21 17  1  0
 22 20  2  0
 23  9  1  0
 26 11  1  0
 29 37  2  0
 30 18  1  0
 32 14  1  0
 33 19  1  0
 36 22  1  0
 38 30  2  0
M  END
>  <KEY>
GOSSYPOL

>  <NAME>
Gossypol

>  <SOURCE>
rcsb-ccd:GO3

>  <SMILES>
Cc1cc2c(C(C)C)c(O)c(O)c(C=O)c2c(O)c1-c1c(C)cc2c(C(C)C)c(O)c(O)c(C=O)c2c1O

>  <FORMULA>
C30H30O8

>  <MW>
518.56

>  <HEAVY_ATOMS>
38

>  <ROTATABLE_BONDS>
5

$$$$
