HARMINE
     RDKit          3D

 16 18  0  0  0  0  0  0  0  0999 V2000
    3.8733    1.6660   -0.5244 C   0  0  0  0  0  0  0  0  0  0  0  0
    2.9841    0.5363   -0.9785 C   0  0  0  0  0  0  0  0  0  0  0  0
    3.4356   -0.3371   -1.8557 N   0  0  0  0  0  0  0  0  0  0  0  0
    2.7032   -1.3472   -2.2906 C   0  0  0  0  0  0  0  0  0  0  0  0
    1.4137   -1.5357   -1.8403 C   0  0  0  0  0  0  0  0  0  0  0  0
    0.8906   -0.6378   -0.9107 C   0  0  0  0  0  0  0  0  0  0  0  0
    1.6988    0.4221   -0.4647 C   0  0  0  0  0  0  0  0  0  0  0  0
    0.9727    1.1662    0.4461 N   0  0  0  0  0  0  0  0  0  0  0  0
   -0.2875    0.6206    0.6162 C   0  0  0  0  0  0  0  0  0  0  0  0
   -1.3681    0.9933    1.4081 C   0  0  0  0  0  0  0  0  0  0  0  0
   -0.3985   -0.5057   -0.2157 C   0  0  0  0  0  0  0  0  0  0  0  0
   -1.5796   -1.2446   -0.2358 C   0  0  0  0  0  0  0  0  0  0  0  0
   -2.6436   -0.8603    0.5492 C   0  0  0  0  0  0  0  0  0  0  0  0
   -2.5341    0.2500    1.3802 C   0  0  0  0  0  0  0  0  0  0  0  0
   -3.5878    0.6186    2.1564 O   0  0  0  0  0  0  0  0  0  0  0  0
   -4.7620   -0.1908    2.0826 C   0  0  0  0  0  0  0  0  0  0  0  0
  1  2  1  0
  2  3  2  0
  2  7  1  0
  3  4  1  0
  4  5  2  0
  5  6  1  0
  6  7  2  0
  6 11  1  0
  7  8  1  0
  8  9  1  0
  9 10  2  0
  9 11  1  0
 10 14  1  0
 11 12  2  0
 12 13  1  0
 13 14  2  0
 14 15  1  0
 15 16  1  0
M  END
>  <KEY>
HARMINE

>  <NAME>
Harmine

>  <SOURCE>
rcsb-ccd:HRM

>  <SMILES>
COc1ccc2c(c1)[nH]c1c(C)nccc12

>  <FORMULA>
C13H12N2O

>  <MW>
212.25

>  <HEAVY_ATOMS>
16

>  <ROTATABLE_BONDS>
1

$$$$
