HELENALIN
     RDKit          3D

 19 21  0  0  1  0  0  0  0  0999 V2000
    2.8272    1.0166   -0.6414 O   0  0  0  0  0  0  0  0  0  0  0  0
   -0.7975   -1.2518   -1.9998 O   0  0  0  0  0  0  0  0  0  0  0  0
   -2.9287   -2.2910    0.0281 O   0  0  0  0  0  0  0  0  0  0  0  0
    4.4797   -0.1555    0.4599 O   0  0  0  0  0  0  0  0  0  0  0  0
   -1.2555   -0.5141    0.2705 C   0  0  2  0  0  0  0  0  0  0  0  0
   -1.5391    0.9532   -0.1455 C   0  0  2  0  0  0  0  0  0  0  0  0
   -0.2489   -1.2054   -0.6680 C   0  0  2  0  0  0  0  0  0  0  0  0
   -0.6632    2.0231    0.5248 C   0  0  1  0  0  0  0  0  0  0  0  0
    1.1669   -0.6065   -0.7809 C   0  0  1  0  0  0  0  0  0  0  0  0
    1.3761    0.9118   -0.7218 C   0  0  1  0  0  0  0  0  0  0  0  0
    0.8445    1.7092    0.4823 C   0  0  0  0  0  0  0  0  0  0  0  0
   -2.6567   -1.1029    0.1214 C   0  0  0  0  0  0  0  0  0  0  0  0
   -0.9165   -0.7372    1.7572 C   0  0  0  0  0  0  0  0  0  0  0  0
   -3.0239    1.0978    0.0817 C   0  0  0  0  0  0  0  0  0  0  0  0
    2.2480   -1.0469    0.1518 C   0  0  0  0  0  0  0  0  0  0  0  0
   -0.9047    3.4018   -0.1176 C   0  0  0  0  0  0  0  0  0  0  0  0
   -3.6868   -0.0555    0.1795 C   0  0  0  0  0  0  0  0  0  0  0  0
    3.3392   -0.0493    0.0481 C   0  0  0  0  0  0  0  0  0  0  0  0
    2.3400   -2.0975    0.9696 C   0  0  0  0  0  0  0  0  0  0  0  0
  1 10  1  0
  1 18  1  0
  7  2  1  6
  3 12  2  0
  4 18  2  0
  5  6  1  0
  5  7  1  0
  5 12  1  0
  5 13  1  1
  6  8  1  0
  6 14  1  1
  7  9  1  0
  8 11  1  0
  8 16  1  6
  9 10  1  0
  9 15  1  1
 10 11  1  1
 12 17  1  0
 14 17  2  0
 15 18  1  0
 15 19  2  0
M  END
>  <KEY>
HELENALIN

>  <NAME>
Helenalin

>  <SOURCE>
pubchem-3d:23205

>  <SMILES>
C=C1C(=O)O[C@@H]2C[C@@H](C)[C@@H]3C=CC(=O)[C@@]3(C)[C@@H](O)[C@H]12

>  <FORMULA>
C15H18O4

>  <MW>
262.31

>  <HEAVY_ATOMS>
19

>  <ROTATABLE_BONDS>
0

$$$$
