HESPERETIN
     RDKit          3D

 22 24  0  0  1  0  0  0  0  0999 V2000
   -0.3140    1.5300    0.6080 C   0  0  0  0  0  0  0  0  0  0  0  0
   -1.8040    1.7420    0.4090 C   0  0  0  0  0  0  0  0  0  0  0  0
   -2.3020    2.8480    0.4480 O   0  0  0  0  0  0  0  0  0  0  0  0
   -2.6110    0.5410    0.1660 C   0  0  0  0  0  0  0  0  0  0  0  0
   -4.0130    0.5960    0.2220 C   0  0  0  0  0  0  0  0  0  0  0  0
   -4.6390    1.7630    0.5150 O   0  0  0  0  0  0  0  0  0  0  0  0
   -4.7500   -0.5480   -0.0230 C   0  0  0  0  0  0  0  0  0  0  0  0
   -4.1050   -1.7420   -0.3210 C   0  0  0  0  0  0  0  0  0  0  0  0
   -4.8360   -2.8580   -0.5630 O   0  0  0  0  0  0  0  0  0  0  0  0
   -2.7180   -1.8040   -0.3730 C   0  0  0  0  0  0  0  0  0  0  0  0
   -1.9610   -0.6710   -0.1290 C   0  0  0  0  0  0  0  0  0  0  0  0
   -0.6090   -0.7400   -0.1690 O   0  0  0  0  0  0  0  0  0  0  0  0
    0.1310    0.4580   -0.3980 C   0  0  2  0  0  0  0  0  0  0  0  0
    1.6020    0.1830   -0.2200 C   0  0  0  0  0  0  0  0  0  0  0  0
    2.5270    0.8420   -1.0080 C   0  0  0  0  0  0  0  0  0  0  0  0
    3.8800    0.5900   -0.8460 C   0  0  0  0  0  0  0  0  0  0  0  0
    4.7910    1.2390   -1.6200 O   0  0  0  0  0  0  0  0  0  0  0  0
    4.3040   -0.3280    0.1100 C   0  0  0  0  0  0  0  0  0  0  0  0
    5.6300   -0.5780    0.2730 O   0  0  0  0  0  0  0  0  0  0  0  0
    5.9920   -1.5320    1.2740 C   0  0  0  0  0  0  0  0  0  0  0  0
    3.3720   -0.9850    0.8960 C   0  0  0  0  0  0  0  0  0  0  0  0
    2.0230   -0.7250    0.7330 C   0  0  0  0  0  0  0  0  0  0  0  0
  1 13  1  0
  2  4  1  0
  2  1  1  0
  3  2  2  0
  4 11  1  0
  5  7  1  0
  5  4  2  0
  6  5  1  0
  7  8  2  0
  8  9  1  0
  8 10  1  0
 11 10  2  0
 11 12  1  0
 13 12  1  0
 13 14  1  1
 14 22  1  0
 14 15  2  0
 15 16  1  0
 16 18  2  0
 16 17  1  0
 18 19  1  0
 19 20  1  0
 21 18  1  0
 22 21  2  0
M  END
>  <KEY>
HESPERETIN

>  <NAME>
Hesperetin

>  <SOURCE>
rcsb-ccd:6JP

>  <SMILES>
COc1ccc([C@@H]2CC(=O)c3c(O)cc(O)cc3O2)cc1O

>  <FORMULA>
C16H14O6

>  <MW>
302.28

>  <HEAVY_ATOMS>
22

>  <ROTATABLE_BONDS>
2

$$$$
