HOMOHARRINGTONINE
     RDKit          3D

 39 43  0  0  1  0  0  0  0  0999 V2000
    2.3040    0.7900   -4.1590 C   0  0  0  0  0  0  0  0  0  0  0  0
    1.4160    0.9080   -3.0450 O   0  0  0  0  0  0  0  0  0  0  0  0
    1.9760    1.1690   -1.8360 C   0  0  0  0  0  0  0  0  0  0  0  0
    3.2700    1.3190   -1.6280 C   0  0  0  0  0  0  0  0  0  0  0  0
    3.5260    1.5910   -0.1730 C   0  0  2  0  0  0  0  0  0  0  0  0
    3.6660    3.1350   -0.0200 C   0  0  0  0  0  0  0  0  0  0  0  0
    5.1020    3.3430    0.5150 C   0  0  0  0  0  0  0  0  0  0  0  0
    5.8050    2.0360    0.0640 C   0  0  0  0  0  0  0  0  0  0  0  0
    4.7480    1.0150    0.3640 N   0  0  0  0  0  0  0  0  0  0  0  0
    5.1670   -0.2690   -0.2090 C   0  0  0  0  0  0  0  0  0  0  0  0
    3.9710   -1.0810   -0.6750 C   0  0  0  0  0  0  0  0  0  0  0  0
    2.9790   -1.2600    0.4370 C   0  0  0  0  0  0  0  0  0  0  0  0
    2.8690   -2.5930    0.8840 C   0  0  0  0  0  0  0  0  0  0  0  0
    1.9990   -2.8690    1.9200 C   0  0  0  0  0  0  0  0  0  0  0  0
    1.7060   -4.0370    2.5380 O   0  0  0  0  0  0  0  0  0  0  0  0
    0.4470   -3.8040    3.2070 C   0  0  0  0  0  0  0  0  0  0  0  0
    0.4650   -2.3850    3.4790 O   0  0  0  0  0  0  0  0  0  0  0  0
    1.2320   -1.8480    2.5020 C   0  0  0  0  0  0  0  0  0  0  0  0
    1.3390   -0.5470    2.0510 C   0  0  0  0  0  0  0  0  0  0  0  0
    2.2320   -0.2790    0.9980 C   0  0  0  0  0  0  0  0  0  0  0  0
    2.2640    1.1700    0.5770 C   0  0  2  0  0  0  0  0  0  0  0  0
    1.1990    1.3300   -0.5480 C   0  0  2  0  0  0  0  0  0  0  0  0
    0.1720    0.3090   -0.4400 O   0  0  0  0  0  0  0  0  0  0  0  0
   -1.0420    0.6120   -0.9260 C   0  0  0  0  0  0  0  0  0  0  0  0
   -1.2400    1.6940   -1.4250 O   0  0  0  0  0  0  0  0  0  0  0  0
   -2.1580   -0.3980   -0.8500 C   0  0  1  0  0  0  0  0  0  0  0  0
   -2.0750   -1.3420   -2.0510 C   0  0  0  0  0  0  0  0  0  0  0  0
   -3.1680   -2.3750   -1.9550 C   0  0  0  0  0  0  0  0  0  0  0  0
   -3.8720   -2.4200   -0.9750 O   0  0  0  0  0  0  0  0  0  0  0  0
   -3.3590   -3.2450   -2.9600 O   0  0  0  0  0  0  0  0  0  0  0  0
   -4.3510   -4.2850   -2.7510 C   0  0  0  0  0  0  0  0  0  0  0  0
   -2.0360   -1.1520    0.3580 O   0  0  0  0  0  0  0  0  0  0  0  0
   -3.5050    0.3280   -0.8640 C   0  0  0  0  0  0  0  0  0  0  0  0
   -3.6090    1.2320    0.3650 C   0  0  0  0  0  0  0  0  0  0  0  0
   -4.9990    1.8720    0.4110 C   0  0  0  0  0  0  0  0  0  0  0  0
   -5.0610    2.8740    1.5650 C   0  0  0  0  0  0  0  0  0  0  0  0
   -6.4410    3.5350    1.5930 C   0  0  0  0  0  0  0  0  0  0  0  0
   -4.8180    2.1450    2.8880 C   0  0  0  0  0  0  0  0  0  0  0  0
   -4.0570    3.8750    1.3820 O   0  0  0  0  0  0  0  0  0  0  0  0
  2  1  1  0
  2  3  1  0
  3  4  2  0
  4  5  1  0
  5  9  1  0
  5  6  1  6
  6  7  1  0
  7  8  1  0
  9  8  1  0
  9 10  1  0
 11 10  1  0
 12 11  1  0
 12 13  2  0
 14 13  1  0
 14 15  1  0
 16 15  1  0
 17 16  1  0
 18 14  2  0
 18 17  1  0
 19 18  1  0
 19 20  2  0
 20 12  1  0
 21  5  1  0
 21 20  1  6
 22  3  1  0
 22 21  1  0
 22 23  1  1
 24 23  1  0
 24 26  1  0
 25 24  2  0
 26 33  1  0
 26 27  1  0
 28 27  1  0
 28 30  1  0
 29 28  2  0
 31 30  1  0
 26 32  1  1
 34 33  1  0
 34 35  1  0
 36 35  1  0
 36 39  1  0
 37 36  1  0
 38 36  1  0
M  END
>  <KEY>
HOMOHARRINGTONINE

>  <NAME>
Homoharringtonine

>  <SOURCE>
rcsb-ccd:HMT

>  <SMILES>
COC(=O)C[C@](O)(CCCC(C)(C)O)C(=O)O[C@@H]1C(OC)=C[C@]23CCCN2CCc2cc4c(cc2[C@H]13)OCO4

>  <FORMULA>
C29H39NO9

>  <MW>
545.63

>  <HEAVY_ATOMS>
39

>  <ROTATABLE_BONDS>
9

$$$$
