HONOKIOL
     RDKit          3D

 20 21  0  0  0  0  0  0  0  0999 V2000
    6.4140   -1.1850   -0.4050 C   0  0  0  0  0  0  0  0  0  0  0  0
    0.0960    2.3730   -0.8400 O   0  0  0  0  0  0  0  0  0  0  0  0
    5.1370   -1.3510   -0.1650 C   0  0  0  0  0  0  0  0  0  0  0  0
    1.1530    1.6440   -0.3970 C   0  0  0  0  0  0  0  0  0  0  0  0
    0.9700    0.3180    0.0070 C   0  0  0  0  0  0  0  0  0  0  0  0
    4.4910   -0.6450    0.9990 C   0  0  0  0  0  0  0  0  0  0  0  0
    3.3120    0.1560    0.5090 C   0  0  0  0  0  0  0  0  0  0  0  0
    3.4910    1.4670    0.1030 C   0  0  0  0  0  0  0  0  0  0  0  0
    2.4170    2.2100   -0.3480 C   0  0  0  0  0  0  0  0  0  0  0  0
   -0.3780   -0.2980   -0.0460 C   0  0  0  0  0  0  0  0  0  0  0  0
   -0.5560   -1.5370   -0.6590 C   0  0  0  0  0  0  0  0  0  0  0  0
   -1.8110   -2.1080   -0.7070 C   0  0  0  0  0  0  0  0  0  0  0  0
   -2.8960   -1.4490   -0.1460 C   0  0  0  0  0  0  0  0  0  0  0  0
   -2.7220   -0.2140    0.4650 C   0  0  0  0  0  0  0  0  0  0  0  0
   -3.9020    0.4950    1.0780 C   0  0  0  0  0  0  0  0  0  0  0  0
   -4.6850    1.1940   -0.0030 C   0  0  0  0  0  0  0  0  0  0  0  0
   -5.9650    0.9550   -0.1440 C   0  0  0  0  0  0  0  0  0  0  0  0
   -1.4690    0.3590    0.5210 C   0  0  0  0  0  0  0  0  0  0  0  0
    2.0600   -0.4220    0.4610 C   0  0  0  0  0  0  0  0  0  0  0  0
   -4.1310   -2.0130   -0.1960 O   0  0  0  0  0  0  0  0  0  0  0  0
  1  3  2  0
  4  2  1  0
  5  4  2  0
  6  7  1  0
  6  3  1  0
  7 19  2  0
  7  8  1  0
  8  9  2  0
  9  4  1  0
 10  5  1  0
 10 11  1  0
 12 11  2  0
 13 12  1  0
 14 18  1  0
 14 13  2  0
 15 14  1  0
 16 15  1  0
 17 16  2  0
 18 10  2  0
 19  5  1  0
 20 13  1  0
M  END
>  <KEY>
HONOKIOL

>  <NAME>
Honokiol

>  <SOURCE>
rcsb-ccd:Y4T

>  <SMILES>
C=CCc1ccc(O)c(-c2ccc(O)c(CC=C)c2)c1

>  <FORMULA>
C18H18O2

>  <MW>
266.34

>  <HEAVY_ATOMS>
20

>  <ROTATABLE_BONDS>
5

$$$$
