HYPERFORIN
     RDKit          3D

 39 40  0  0  1  0  0  0  0  0999 V2000
    2.0053   -2.5780   -0.5635 O   0  0  0  0  0  0  0  0  0  0  0  0
    2.7360    1.8124   -1.3744 O   0  0  0  0  0  0  0  0  0  0  0  0
   -1.3078   -0.3156   -2.5500 O   0  0  0  0  0  0  0  0  0  0  0  0
   -1.5838   -3.2477   -0.5589 O   0  0  0  0  0  0  0  0  0  0  0  0
   -0.7844   -0.9221    0.6220 C   0  0  1  0  0  0  0  0  0  0  0  0
   -0.0949   -1.3789   -0.7373 C   0  0  2  0  0  0  0  0  0  0  0  0
   -0.0917    0.3902    1.1727 C   0  0  2  0  0  0  0  0  0  0  0  0
    2.0844   -0.2027   -0.0956 C   0  0  1  0  0  0  0  0  0  0  0  0
    1.4501    0.2757    1.2235 C   0  0  0  0  0  0  0  0  0  0  0  0
    1.4038   -1.5104   -0.4672 C   0  0  0  0  0  0  0  0  0  0  0  0
   -2.2940   -0.6417    0.4043 C   0  0  0  0  0  0  0  0  0  0  0  0
   -0.6919   -2.0588    1.6783 C   0  0  0  0  0  0  0  0  0  0  0  0
   -0.2963   -0.3264   -1.8460 C   0  0  0  0  0  0  0  0  0  0  0  0
   -0.5926    0.8595    2.5478 C   0  0  0  0  0  0  0  0  0  0  0  0
    1.8242    0.7756   -1.2335 C   0  0  0  0  0  0  0  0  0  0  0  0
   -0.6781   -2.7072   -1.1938 C   0  0  0  0  0  0  0  0  0  0  0  0
    3.5874   -0.4721    0.1210 C   0  0  0  0  0  0  0  0  0  0  0  0
    0.7595    0.7255   -2.0636 C   0  0  0  0  0  0  0  0  0  0  0  0
   -2.9591   -0.2784    1.7191 C   0  0  0  0  0  0  0  0  0  0  0  0
   -0.0647   -3.3374   -2.4408 C   0  0  0  0  0  0  0  0  0  0  0  0
    0.5040    1.6969   -3.1788 C   0  0  0  0  0  0  0  0  0  0  0  0
    0.0852    2.1293    2.9541 C   0  0  0  0  0  0  0  0  0  0  0  0
    3.7981   -1.3421    1.3168 C   0  0  0  0  0  0  0  0  0  0  0  0
   -4.4179    0.0077    1.5005 C   0  0  0  0  0  0  0  0  0  0  0  0
   -1.0992   -3.4609   -3.5565 C   0  0  0  0  0  0  0  0  0  0  0  0
    0.5276   -4.6988   -2.0975 C   0  0  0  0  0  0  0  0  0  0  0  0
   -0.3367    3.3905    2.7424 C   0  0  0  0  0  0  0  0  0  0  0  0
    4.8424   -1.3305    2.1667 C   0  0  0  0  0  0  0  0  0  0  0  0
   -0.4061    2.8062   -2.7507 C   0  0  0  0  0  0  0  0  0  0  0  0
   -5.4364   -0.8729    1.4836 C   0  0  0  0  0  0  0  0  0  0  0  0
   -1.6380    3.6503    2.0313 C   0  0  0  0  0  0  0  0  0  0  0  0
    0.3921    4.6304    3.1767 C   0  0  0  0  0  0  0  0  0  0  0  0
   -0.1639    4.1309   -2.7838 C   0  0  0  0  0  0  0  0  0  0  0  0
    5.9714   -0.3531    1.9747 C   0  0  0  0  0  0  0  0  0  0  0  0
    4.9988   -2.2340    3.3569 C   0  0  0  0  0  0  0  0  0  0  0  0
   -6.8794   -0.5202    1.2586 C   0  0  0  0  0  0  0  0  0  0  0  0
   -5.1785   -2.3423    1.6860 C   0  0  0  0  0  0  0  0  0  0  0  0
   -1.1230    5.1978   -2.3377 C   0  0  0  0  0  0  0  0  0  0  0  0
    1.1477    4.6534   -3.3073 C   0  0  0  0  0  0  0  0  0  0  0  0
  1 10  2  0
  2 15  1  0
  3 13  2  0
  4 16  2  0
  5  6  1  0
  5  7  1  0
  5 11  1  0
  5 12  1  1
  6 10  1  0
  6 13  1  0
  6 16  1  6
  7  9  1  0
  7 14  1  1
  8  9  1  0
  8 10  1  0
  8 15  1  0
  8 17  1  1
 11 19  1  0
 13 18  1  0
 14 22  1  0
 15 18  2  0
 16 20  1  0
 17 23  1  0
 18 21  1  0
 19 24  1  0
 20 25  1  0
 20 26  1  0
 21 29  1  0
 22 27  2  3
 23 28  2  3
 24 30  2  3
 27 31  1  0
 27 32  1  0
 28 34  1  0
 28 35  1  0
 29 33  2  3
 30 36  1  0
 30 37  1  0
 33 38  1  0
 33 39  1  0
M  END
>  <KEY>
HYPERFORIN

>  <NAME>
Hyperforin

>  <SOURCE>
pubchem-3d:441298

>  <SMILES>
CC(C)=CCC[C@]1(C)[C@@H](CC=C(C)C)C[C@@]2(CC=C(C)C)C(=O)[C@]1(C(=O)C(C)C)C(=O)C(CC=C(C)C)=C2O

>  <FORMULA>
C35H52O4

>  <MW>
536.80

>  <HEAVY_ATOMS>
39

>  <ROTATABLE_BONDS>
11

$$$$
