HYPERICIN
     RDKit          3D

 38 45  0  0  0  0  0  0  0  0999 V2000
   -4.8804    0.0371   -0.0675 O   0  0  0  0  0  0  0  0  0  0  0  0
    4.8803    0.0337    0.0668 O   0  0  0  0  0  0  0  0  0  0  0  0
   -1.0769   -4.9318   -0.2532 O   0  0  0  0  0  0  0  0  0  0  0  0
    1.0730   -4.9326    0.2526 O   0  0  0  0  0  0  0  0  0  0  0  0
   -4.9165   -2.4757   -0.1493 O   0  0  0  0  0  0  0  0  0  0  0  0
    4.9145   -2.4791    0.1517 O   0  0  0  0  0  0  0  0  0  0  0  0
   -4.7529    2.5267   -0.2424 O   0  0  0  0  0  0  0  0  0  0  0  0
    4.7548    2.5231    0.2422 O   0  0  0  0  0  0  0  0  0  0  0  0
   -0.7035    0.0010   -0.0022 C   0  0  0  0  0  0  0  0  0  0  0  0
    0.7035    0.0005    0.0015 C   0  0  0  0  0  0  0  0  0  0  0  0
   -1.4007    1.2339    0.0538 C   0  0  0  0  0  0  0  0  0  0  0  0
    1.4016    1.2329   -0.0542 C   0  0  0  0  0  0  0  0  0  0  0  0
   -1.4113   -1.2310   -0.0314 C   0  0  0  0  0  0  0  0  0  0  0  0
    1.4104   -1.2321    0.0309 C   0  0  0  0  0  0  0  0  0  0  0  0
   -0.6948    2.4632    0.1239 C   0  0  0  0  0  0  0  0  0  0  0  0
    0.6967    2.4626   -0.1242 C   0  0  0  0  0  0  0  0  0  0  0  0
   -0.7160   -2.4687   -0.0246 C   0  0  0  0  0  0  0  0  0  0  0  0
    0.7142   -2.4692    0.0242 C   0  0  0  0  0  0  0  0  0  0  0  0
   -2.8050    1.2000    0.0194 C   0  0  0  0  0  0  0  0  0  0  0  0
    2.8059    1.1980   -0.0196 C   0  0  0  0  0  0  0  0  0  0  0  0
   -2.8311   -1.2138   -0.0630 C   0  0  0  0  0  0  0  0  0  0  0  0
    2.8302   -1.2160    0.0628 C   0  0  0  0  0  0  0  0  0  0  0  0
   -3.5134    0.0013   -0.0501 C   0  0  0  0  0  0  0  0  0  0  0  0
    3.5134   -0.0013    0.0500 C   0  0  0  0  0  0  0  0  0  0  0  0
   -1.4821    3.6507    0.5780 C   0  0  0  0  0  0  0  0  0  0  0  0
    1.4849    3.6499   -0.5777 C   0  0  0  0  0  0  0  0  0  0  0  0
   -1.4968   -3.6509   -0.0627 C   0  0  0  0  0  0  0  0  0  0  0  0
    1.4941   -3.6520    0.0627 C   0  0  0  0  0  0  0  0  0  0  0  0
   -3.5630    2.4670    0.0358 C   0  0  0  0  0  0  0  0  0  0  0  0
    3.5648    2.4644   -0.0357 C   0  0  0  0  0  0  0  0  0  0  0  0
   -3.5534   -2.4092   -0.1033 C   0  0  0  0  0  0  0  0  0  0  0  0
    3.5515   -2.4119    0.1036 C   0  0  0  0  0  0  0  0  0  0  0  0
   -2.8213    3.6601    0.4808 C   0  0  0  0  0  0  0  0  0  0  0  0
    2.8240    3.6582   -0.4801 C   0  0  0  0  0  0  0  0  0  0  0  0
   -2.8889   -3.6238   -0.1042 C   0  0  0  0  0  0  0  0  0  0  0  0
    2.8861   -3.6259    0.1045 C   0  0  0  0  0  0  0  0  0  0  0  0
   -0.8346    4.7804    1.3309 C   0  0  0  0  0  0  0  0  0  0  0  0
    0.8383    4.7802   -1.3304 C   0  0  0  0  0  0  0  0  0  0  0  0
  1 23  1  0
  2 24  1  0
  3 27  1  0
  4 28  1  0
  5 31  1  0
  6 32  1  0
  7 29  2  0
  8 30  2  0
  9 10  1  0
  9 11  1  0
  9 13  2  0
 10 12  2  0
 10 14  1  0
 11 15  1  0
 11 19  2  0
 12 16  1  0
 12 20  1  0
 13 17  1  0
 13 21  1  0
 14 18  1  0
 14 22  2  0
 15 16  2  0
 15 25  1  0
 16 26  1  0
 17 18  1  0
 17 27  2  0
 18 28  2  0
 19 23  1  0
 19 29  1  0
 20 24  2  0
 20 30  1  0
 21 23  2  0
 21 31  1  0
 22 24  1  0
 22 32  1  0
 25 33  2  0
 25 37  1  0
 26 34  2  0
 26 38  1  0
 27 35  1  0
 28 36  1  0
 29 33  1  0
 30 34  1  0
 31 35  2  0
 32 36  2  0
M  END
>  <KEY>
HYPERICIN

>  <NAME>
Hypericin

>  <SOURCE>
pubchem-3d:3663

>  <SMILES>
Cc1cc(=O)c2c(O)c3c(O)cc(O)c4c5c(O)cc(O)c6c(O)c7c(=O)cc(C)c8c1c2c(c34)c(c65)c78

>  <FORMULA>
C30H16O8

>  <MW>
504.45

>  <HEAVY_ATOMS>
38

>  <ROTATABLE_BONDS>
0

$$$$
