INDIRUBIN
     RDKit          3D

 20 23  0  0  0  0  0  0  0  0999 V2000
    2.8780   -1.8320   -0.0670 N   0  0  0  0  0  0  0  0  0  0  0  0
   -0.4380   -0.3820   -0.0040 C   0  0  0  0  0  0  0  0  0  0  0  0
   -1.0490    0.9630   -0.1230 C   0  0  0  0  0  0  0  0  0  0  0  0
   -2.5040    0.7340   -0.0550 C   0  0  0  0  0  0  0  0  0  0  0  0
    0.9650   -3.0740   -0.1430 O   0  0  0  0  0  0  0  0  0  0  0  0
    4.4970    1.5420    0.1020 C   0  0  0  0  0  0  0  0  0  0  0  0
    2.1050    1.6730    0.1100 C   0  0  0  0  0  0  0  0  0  0  0  0
    0.9110   -0.6720   -0.0150 C   0  0  0  0  0  0  0  0  0  0  0  0
    2.0360    0.2830    0.0380 C   0  0  0  0  0  0  0  0  0  0  0  0
    3.2110   -0.4830    0.0010 C   0  0  0  0  0  0  0  0  0  0  0  0
    4.4400    0.1630    0.0340 C   0  0  0  0  0  0  0  0  0  0  0  0
   -1.4650   -1.2880    0.1280 N   0  0  0  0  0  0  0  0  0  0  0  0
    3.3360    2.2960    0.1390 C   0  0  0  0  0  0  0  0  0  0  0  0
   -0.4730    2.0270   -0.2500 O   0  0  0  0  0  0  0  0  0  0  0  0
   -3.6020    1.5930   -0.1150 C   0  0  0  0  0  0  0  0  0  0  0  0
   -4.8780    1.0790   -0.0280 C   0  0  0  0  0  0  0  0  0  0  0  0
   -5.0700   -0.2850    0.1190 C   0  0  0  0  0  0  0  0  0  0  0  0
   -3.9920   -1.1450    0.1790 C   0  0  0  0  0  0  0  0  0  0  0  0
   -2.6960   -0.6480    0.0940 C   0  0  0  0  0  0  0  0  0  0  0  0
    1.5450   -2.0080   -0.0840 C   0  0  0  0  0  0  0  0  0  0  0  0
  2  8  2  0
  3 14  2  0
  3  2  1  0
  4 19  1  0
  4  3  1  0
  5 20  2  0
  6 11  1  0
  7  9  2  0
  7 13  1  0
  8  9  1  0
  8 20  1  0
  9 10  1  0
 10  1  1  0
 10 11  2  0
 12  2  1  0
 13  6  2  0
 15  4  2  0
 16 17  2  0
 16 15  1  0
 17 18  1  0
 18 19  2  0
 19 12  1  0
 20  1  1  0
M  END
>  <KEY>
INDIRUBIN

>  <NAME>
Indirubin

>  <SOURCE>
rcsb-ccd:JY6

>  <SMILES>
O=C1Nc2ccccc2/C1=C1/Nc2ccccc2C1=O

>  <FORMULA>
C16H10N2O2

>  <MW>
262.27

>  <HEAVY_ATOMS>
20

>  <ROTATABLE_BONDS>
0

$$$$
