INDOLE_3_CARBINOL
     RDKit          3D

 11 12  0  0  0  0  0  0  0  0999 V2000
    2.4845    1.1897   -0.2420 C   0  0  0  0  0  0  0  0  0  0  0  0
    0.2996    0.2752    0.0769 C   0  0  0  0  0  0  0  0  0  0  0  0
   -1.0729    0.0355    0.5291 C   0  0  0  0  0  0  0  0  0  0  0  0
    0.5879   -0.7458   -0.8476 C   0  0  0  0  0  0  0  0  0  0  0  0
   -1.5129   -1.0572   -0.1140 C   0  0  0  0  0  0  0  0  0  0  0  0
    1.2630    1.2404    0.3707 C   0  0  0  0  0  0  0  0  0  0  0  0
   -1.8445    0.8598    1.5270 C   0  0  0  0  0  0  0  0  0  0  0  0
    1.8381   -0.7813   -1.4554 C   0  0  0  0  0  0  0  0  0  0  0  0
    2.7731    0.1852   -1.1541 C   0  0  0  0  0  0  0  0  0  0  0  0
   -0.5347   -1.5386   -0.9407 N   0  0  0  0  0  0  0  0  0  0  0  0
   -3.1491    0.3018    1.6989 O   0  0  0  0  0  0  0  0  0  0  0  0
  1  9  2  0
  2  4  1  0
  3  2  1  0
  3  5  2  0
  4 10  1  0
  4  8  2  0
  5 10  1  0
  6  2  2  0
  6  1  1  0
  7  3  1  0
  7 11  1  0
  9  8  1  0
M  END
>  <KEY>
INDOLE_3_CARBINOL

>  <NAME>
Indole-3-carbinol

>  <SOURCE>
rcsb-ccd:FXK

>  <SMILES>
OCc1c[nH]c2ccccc12

>  <FORMULA>
C9H9NO

>  <MW>
147.18

>  <HEAVY_ATOMS>
11

>  <ROTATABLE_BONDS>
1

$$$$
