INGENOL_MEBUTATE
     RDKit          3D

 31 34  0  0  1  0  0  0  0  0999 V2000
   -8.3130   -5.5860    1.8300 C   0  0  0  0  0  0  0  0  0  0  0  0
   -5.6800   -4.3280    2.3220 O   0  0  0  0  0  0  0  0  0  0  0  0
   -7.9260   -5.0040    0.4890 C   0  0  0  0  0  0  0  0  0  0  0  0
   -3.7770   -0.7490    3.2620 C   0  0  2  0  0  0  0  0  0  0  0  0
   -4.0660    0.4820    4.0870 C   0  0  0  0  0  0  0  0  0  0  0  0
   -4.6550    1.6270    3.6690 C   0  0  0  0  0  0  0  0  0  0  0  0
   -5.1300    1.7100    2.2490 C   0  0  2  0  0  0  0  0  0  0  0  0
   -3.9320    1.3720    1.4200 C   0  0  0  0  0  0  0  0  0  0  0  0
   -5.7770    2.9860    1.7110 C   0  0  1  0  0  0  0  0  0  0  0  0
   -6.3750    2.5420    0.3570 C   0  0  2  0  0  0  0  0  0  0  0  0
   -7.2940    2.9690    1.5120 C   0  0  0  0  0  0  0  0  0  0  0  0
   -8.0240    1.9130    2.3510 C   0  0  0  0  0  0  0  0  0  0  0  0
   -7.9500    4.3310    1.3510 C   0  0  0  0  0  0  0  0  0  0  0  0
   -6.8020   -4.2930    0.2310 C   0  0  0  0  0  0  0  0  0  0  0  0
   -6.4650    1.0190    0.1040 C   0  0  0  0  0  0  0  0  0  0  0  0
   -5.1850    0.2420   -0.3020 C   0  0  1  0  0  0  0  0  0  0  0  0
   -4.5270    0.8910   -1.5220 C   0  0  0  0  0  0  0  0  0  0  0  0
   -3.5910    0.4120    5.5270 C   0  0  0  0  0  0  0  0  0  0  0  0
   -1.7560   -2.8450    0.0200 C   0  0  0  0  0  0  0  0  0  0  0  0
   -6.5450   -3.7670   -1.1420 C   0  0  0  0  0  0  0  0  0  0  0  0
   -5.7620   -3.9290    1.1690 C   0  0  0  0  0  0  0  0  0  0  0  0
   -3.8990   -2.3140    1.4200 C   0  0  1  0  0  0  0  0  0  0  0  0
   -2.8020   -1.8740    0.5080 C   0  0  0  0  0  0  0  0  0  0  0  0
   -2.8660   -0.5720    0.1930 C   0  0  0  0  0  0  0  0  0  0  0  0
   -4.1170    0.0320    0.8010 C   0  0  1  0  0  0  0  0  0  0  0  0
   -4.4670   -0.9860    1.9050 C   0  0  2  0  0  0  0  0  0  0  0  0
   -4.8230   -2.9870    0.5930 O   0  0  0  0  0  0  0  0  0  0  0  0
   -2.9440    2.1080    1.3000 O   0  0  0  0  0  0  0  0  0  0  0  0
   -2.1810    0.1810    5.5560 O   0  0  0  0  0  0  0  0  0  0  0  0
   -4.1610   -1.8540    4.0730 O   0  0  0  0  0  0  0  0  0  0  0  0
   -5.8680   -1.2170    2.0940 O   0  0  0  0  0  0  0  0  0  0  0  0
  3  1  1  0
  4 30  1  1
  4  5  1  0
  5 18  1  0
  6  5  2  0
  7  6  1  1
  8  7  1  0
  9  7  1  0
 10 11  1  0
 10  9  1  0
  9 11  1  1
 11 12  1  0
 13 11  1  0
 14  3  2  0
 14 21  1  0
 10 15  1  1
 16 15  1  0
 16 25  1  0
 16 17  1  6
 18 29  1  0
 19 23  1  0
 20 14  1  0
 21  2  2  0
 22 26  1  0
 23 22  1  0
 24 23  2  0
 25 24  1  6
 25  8  1  0
 25 26  1  0
 26 31  1  1
 26  4  1  0
 27 21  1  0
 22 27  1  6
 28  8  2  0
M  END
>  <KEY>
INGENOL_MEBUTATE

>  <NAME>
Ingenol mebutate

>  <SOURCE>
rcsb-ccd:WUD

>  <SMILES>
C/C=C(/C)C(=O)O[C@H]1C(C)=C[C@]23C(=O)[C@@H](C=C(CO)[C@@H](O)[C@]12O)[C@H]1[C@@H](C[C@H]3C)C1(C)C

>  <FORMULA>
C25H34O6

>  <MW>
430.54

>  <HEAVY_ATOMS>
31

>  <ROTATABLE_BONDS>
3

$$$$
