ISOLIQUIRITIGENIN
     RDKit          3D

 19 20  0  0  0  0  0  0  0  0999 V2000
   -1.2960   -0.0170   -4.5200 C   0  0  0  0  0  0  0  0  0  0  0  0
   -1.9110   -0.0170   -3.2720 C   0  0  0  0  0  0  0  0  0  0  0  0
   -1.1520   -0.0150   -2.1250 C   0  0  0  0  0  0  0  0  0  0  0  0
    0.2430   -0.0130   -2.2120 C   0  0  0  0  0  0  0  0  0  0  0  0
    0.8620   -0.0070   -3.4710 C   0  0  0  0  0  0  0  0  0  0  0  0
    0.0870   -0.0140   -4.6180 C   0  0  0  0  0  0  0  0  0  0  0  0
    1.0610   -0.0110   -0.9850 C   0  0  0  0  0  0  0  0  0  0  0  0
    0.4130   -0.0100    0.3250 C   0  0  0  0  0  0  0  0  0  0  0  0
    1.1630   -0.0080    1.4490 C   0  0  0  0  0  0  0  0  0  0  0  0
    2.2160   -0.0050   -3.5640 O   0  0  0  0  0  0  0  0  0  0  0  0
    0.5110   -0.0080    2.7660 C   0  0  0  0  0  0  0  0  0  0  0  0
    1.2850   -0.0060    3.9330 C   0  0  0  0  0  0  0  0  0  0  0  0
    0.6700   -0.0050    5.1640 C   0  0  0  0  0  0  0  0  0  0  0  0
   -0.7160   -0.0070    5.2510 C   0  0  0  0  0  0  0  0  0  0  0  0
   -1.4900   -0.0150    4.0950 C   0  0  0  0  0  0  0  0  0  0  0  0
   -0.8850   -0.0100    2.8590 C   0  0  0  0  0  0  0  0  0  0  0  0
    2.2770   -0.0090   -1.0630 O   0  0  0  0  0  0  0  0  0  0  0  0
   -1.3180   -0.0060    6.4670 O   0  0  0  0  0  0  0  0  0  0  0  0
   -2.0530   -0.0180   -5.6470 O   0  0  0  0  0  0  0  0  0  0  0  0
  1  2  1  0
  1  6  2  0
  1 19  1  0
  2  3  2  0
  3  4  1  0
  4  5  2  0
  4  7  1  0
  5  6  1  0
  5 10  1  0
  7  8  1  0
  7 17  2  0
  8  9  2  0
  9 11  1  0
 11 12  1  0
 11 16  2  0
 12 13  2  0
 13 14  1  0
 14 15  2  0
 14 18  1  0
 15 16  1  0
M  END
>  <KEY>
ISOLIQUIRITIGENIN

>  <NAME>
Isoliquiritigenin

>  <SOURCE>
rcsb-ccd:HCC

>  <SMILES>
O=C(/C=C/c1ccc(O)cc1)c1ccc(O)cc1O

>  <FORMULA>
C15H12O4

>  <MW>
256.26

>  <HEAVY_ATOMS>
19

>  <ROTATABLE_BONDS>
3

$$$$
