JUGLONE
     RDKit          3D

 13 14  0  0  0  0  0  0  0  0999 V2000
   -2.8757   -1.1104    0.4938 O   0  0  0  0  0  0  0  0  0  0  0  0
   -1.9076   -0.3843    0.5967 C   0  0  0  0  0  0  0  0  0  0  0  0
   -1.9435    0.7723    1.5110 C   0  0  0  0  0  0  0  0  0  0  0  0
   -0.8833    1.5828    1.6361 C   0  0  0  0  0  0  0  0  0  0  0  0
    0.3496    1.3423    0.8632 C   0  0  0  0  0  0  0  0  0  0  0  0
    1.3019    2.0867    0.9889 O   0  0  0  0  0  0  0  0  0  0  0  0
    0.4240    0.1964   -0.0608 C   0  0  0  0  0  0  0  0  0  0  0  0
   -0.6864   -0.6594   -0.1894 C   0  0  0  0  0  0  0  0  0  0  0  0
   -0.6250   -1.7451   -1.0541 C   0  0  0  0  0  0  0  0  0  0  0  0
    0.5323   -1.9851   -1.7832 C   0  0  0  0  0  0  0  0  0  0  0  0
    1.6255   -1.1548   -1.6583 C   0  0  0  0  0  0  0  0  0  0  0  0
    1.5792   -0.0524   -0.8039 C   0  0  0  0  0  0  0  0  0  0  0  0
    2.6558    0.7614   -0.6838 O   0  0  0  0  0  0  0  0  0  0  0  0
  1  2  2  0
  2  8  1  0
  2  3  1  0
  3  4  2  0
  4  5  1  0
  5  6  2  0
  7 12  2  0
  7  5  1  0
  8  7  1  0
  9 10  1  0
  9  8  2  0
 10 11  2  0
 11 12  1  0
 12 13  1  0
M  END
>  <KEY>
JUGLONE

>  <NAME>
Juglone

>  <SOURCE>
rcsb-ccd:JUG

>  <SMILES>
O=C1C=CC(=O)c2c(O)cccc21

>  <FORMULA>
C10H6O3

>  <MW>
174.16

>  <HEAVY_ATOMS>
13

>  <ROTATABLE_BONDS>
0

$$$$
