KAEMPFEROL
     RDKit          3D

 21 23  0  0  0  0  0  0  0  0999 V2000
    0.4870    0.0220   -4.2650 C   0  0  0  0  0  0  0  0  0  0  0  0
   -0.6290   -0.0530   -3.4540 C   0  0  0  0  0  0  0  0  0  0  0  0
   -0.4730   -0.0400   -2.0610 C   0  0  0  0  0  0  0  0  0  0  0  0
    0.8100    0.0470   -1.4940 C   0  0  0  0  0  0  0  0  0  0  0  0
    1.9180    0.1220   -2.3250 C   0  0  0  0  0  0  0  0  0  0  0  0
    1.7550    0.1090   -3.7010 C   0  0  0  0  0  0  0  0  0  0  0  0
   -1.6350   -0.1180   -1.1620 C   0  0  0  0  0  0  0  0  0  0  0  0
   -1.3830   -0.0990    0.2330 C   0  0  0  0  0  0  0  0  0  0  0  0
   -0.0990   -0.0100    0.6810 C   0  0  0  0  0  0  0  0  0  0  0  0
    0.1450    0.0080    2.1350 C   0  0  0  0  0  0  0  0  0  0  0  0
   -0.6020    0.8520    2.9610 C   0  0  0  0  0  0  0  0  0  0  0  0
   -0.3700    0.8670    4.3190 C   0  0  0  0  0  0  0  0  0  0  0  0
    0.6050    0.0440    4.8680 C   0  0  0  0  0  0  0  0  0  0  0  0
    1.3550   -0.7920    4.0500 C   0  0  0  0  0  0  0  0  0  0  0  0
    1.1260   -0.8170    2.6920 C   0  0  0  0  0  0  0  0  0  0  0  0
    0.9510    0.0640   -0.1520 O   0  0  0  0  0  0  0  0  0  0  0  0
   -2.7720   -0.1960   -1.6000 O   0  0  0  0  0  0  0  0  0  0  0  0
    0.8300    0.0620    6.2070 O   0  0  0  0  0  0  0  0  0  0  0  0
   -2.4140   -0.1680    1.1180 O   0  0  0  0  0  0  0  0  0  0  0  0
    2.8450    0.1820   -4.5070 O   0  0  0  0  0  0  0  0  0  0  0  0
   -1.8680   -0.1380   -4.0020 O   0  0  0  0  0  0  0  0  0  0  0  0
  1  2  1  0
  1  6  2  0
  2  3  2  0
  2 21  1  0
  3  4  1  0
  3  7  1  0
  4  5  2  0
  4 16  1  0
  5  6  1  0
  6 20  1  0
  7  8  1  0
  7 17  2  0
  8  9  2  0
  8 19  1  0
  9 10  1  0
  9 16  1  0
 10 11  1  0
 10 15  2  0
 11 12  2  0
 12 13  1  0
 13 14  2  0
 13 18  1  0
 14 15  1  0
M  END
>  <KEY>
KAEMPFEROL

>  <NAME>
Kaempferol

>  <SOURCE>
rcsb-ccd:KMP

>  <SMILES>
O=c1c(O)c(-c2ccc(O)cc2)oc2cc(O)cc(O)c12

>  <FORMULA>
C15H10O6

>  <MW>
286.24

>  <HEAVY_ATOMS>
21

>  <ROTATABLE_BONDS>
1

$$$$
