LAPACHOL
     RDKit          3D

 18 19  0  0  0  0  0  0  0  0999 V2000
    0.4746   -2.0662   -0.8127 O   0  0  0  0  0  0  0  0  0  0  0  0
    0.6289    2.7023   -0.4340 O   0  0  0  0  0  0  0  0  0  0  0  0
   -1.9070    2.7345    0.2976 O   0  0  0  0  0  0  0  0  0  0  0  0
    0.6944    0.3206   -0.6432 C   0  0  0  0  0  0  0  0  0  0  0  0
   -1.4605   -0.8119   -0.1492 C   0  0  0  0  0  0  0  0  0  0  0  0
    2.1473    0.4148   -1.0164 C   0  0  0  0  0  0  0  0  0  0  0  0
   -0.0350   -0.8092   -0.5462 C   0  0  0  0  0  0  0  0  0  0  0  0
   -2.1283    0.3835    0.1447 C   0  0  0  0  0  0  0  0  0  0  0  0
    0.0452    1.6301   -0.3537 C   0  0  0  0  0  0  0  0  0  0  0  0
   -1.3957    1.6526    0.0542 C   0  0  0  0  0  0  0  0  0  0  0  0
    3.0271    0.4571    0.1936 C   0  0  0  0  0  0  0  0  0  0  0  0
   -2.1937   -2.0077   -0.0522 C   0  0  0  0  0  0  0  0  0  0  0  0
   -3.4771    0.3961    0.5223 C   0  0  0  0  0  0  0  0  0  0  0  0
    4.0308   -0.3827    0.5127 C   0  0  0  0  0  0  0  0  0  0  0  0
   -3.5403   -2.0021    0.3243 C   0  0  0  0  0  0  0  0  0  0  0  0
   -4.1809   -0.8013    0.6112 C   0  0  0  0  0  0  0  0  0  0  0  0
    4.8807   -0.2864    1.7480 C   0  0  0  0  0  0  0  0  0  0  0  0
    4.3899   -1.5241   -0.4012 C   0  0  0  0  0  0  0  0  0  0  0  0
  1  7  1  0
  2  9  2  0
  3 10  2  0
  4  6  1  0
  4  7  2  0
  4  9  1  0
  5  7  1  0
  5  8  1  0
  5 12  2  0
  6 11  1  0
  8 10  1  0
  8 13  2  0
  9 10  1  0
 11 14  2  3
 12 15  1  0
 13 16  1  0
 14 17  1  0
 14 18  1  0
 15 16  2  0
M  END
>  <KEY>
LAPACHOL

>  <NAME>
Lapachol

>  <SOURCE>
pubchem-3d:3884

>  <SMILES>
CC(C)=CCC1=C(O)c2ccccc2C(=O)C1=O

>  <FORMULA>
C15H14O3

>  <MW>
242.27

>  <HEAVY_ATOMS>
18

>  <ROTATABLE_BONDS>
2

$$$$
