LAWSONE
     RDKit          3D

 13 14  0  0  0  0  0  0  0  0999 V2000
    0.5703    2.4435    1.6491 O   0  0  0  0  0  0  0  0  0  0  0  0
   -1.7773   -1.9345   -0.6578 O   0  0  0  0  0  0  0  0  0  0  0  0
   -3.1079   -0.4401    1.1076 O   0  0  0  0  0  0  0  0  0  0  0  0
    0.7404    0.5510    0.0737 C   0  0  0  0  0  0  0  0  0  0  0  0
    0.1683   -0.5814   -0.5270 C   0  0  0  0  0  0  0  0  0  0  0  0
   -0.0283    1.3505    1.0447 C   0  0  0  0  0  0  0  0  0  0  0  0
   -1.2115   -0.9650   -0.1778 C   0  0  0  0  0  0  0  0  0  0  0  0
    2.0562    0.8898   -0.2804 C   0  0  0  0  0  0  0  0  0  0  0  0
    0.8816   -1.3537   -1.4513 C   0  0  0  0  0  0  0  0  0  0  0  0
   -1.2842    1.0438    1.3952 C   0  0  0  0  0  0  0  0  0  0  0  0
   -1.9645   -0.1268    0.8142 C   0  0  0  0  0  0  0  0  0  0  0  0
    2.7718    0.1212   -1.2032 C   0  0  0  0  0  0  0  0  0  0  0  0
    2.1853   -0.9982   -1.7871 C   0  0  0  0  0  0  0  0  0  0  0  0
  1  6  1  0
  2  7  2  0
  3 11  2  0
  4  5  1  0
  4  6  1  0
  4  8  2  0
  5  7  1  0
  5  9  2  0
  6 10  2  0
  7 11  1  0
  8 12  1  0
  9 13  1  0
 10 11  1  0
 12 13  2  0
M  END
>  <KEY>
LAWSONE

>  <NAME>
Lawsone

>  <SOURCE>
pubchem-3d:6755

>  <SMILES>
O=C1C=C(O)c2ccccc2C1=O

>  <FORMULA>
C10H6O3

>  <MW>
174.16

>  <HEAVY_ATOMS>
13

>  <ROTATABLE_BONDS>
0

$$$$
