LICOCHALCONE_A
     RDKit          3D

 25 26  0  0  0  0  0  0  0  0999 V2000
    5.2864   -0.0617    0.6052 O   0  0  0  0  0  0  0  0  0  0  0  0
    2.0098   -3.4337   -0.0939 O   0  0  0  0  0  0  0  0  0  0  0  0
   -2.6506   -2.2721   -1.2336 O   0  0  0  0  0  0  0  0  0  0  0  0
   -6.8063    1.9712    0.8778 O   0  0  0  0  0  0  0  0  0  0  0  0
    3.4055    2.0331    0.1226 C   0  0  0  0  0  0  0  0  0  0  0  0
    3.0303    0.5389    0.0659 C   0  0  0  0  0  0  0  0  0  0  0  0
    3.8914    2.4977    1.5170 C   0  0  0  0  0  0  0  0  0  0  0  0
    4.5844    2.2718   -0.8528 C   0  0  0  0  0  0  0  0  0  0  0  0
    2.1682    2.8778   -0.1842 C   0  0  0  0  0  0  0  0  0  0  0  0
    1.7289    0.2229   -0.2317 C   0  0  0  0  0  0  0  0  0  0  0  0
    3.9995   -0.3989    0.3112 C   0  0  0  0  0  0  0  0  0  0  0  0
    1.3732   -1.1247   -0.2875 C   0  0  0  0  0  0  0  0  0  0  0  0
    3.6438   -1.7465    0.2555 C   0  0  0  0  0  0  0  0  0  0  0  0
    2.3307   -2.1093   -0.0439 C   0  0  0  0  0  0  0  0  0  0  0  0
   -0.0041   -1.4786   -0.6027 C   0  0  0  0  0  0  0  0  0  0  0  0
    2.0027    3.7528   -1.1843 C   0  0  0  0  0  0  0  0  0  0  0  0
   -1.0886   -0.7375   -0.2875 C   0  0  0  0  0  0  0  0  0  0  0  0
   -2.4534   -1.2134   -0.6477 C   0  0  0  0  0  0  0  0  0  0  0  0
    1.5674   -4.0382    1.1191 C   0  0  0  0  0  0  0  0  0  0  0  0
   -3.6048   -0.3711   -0.2437 C   0  0  0  0  0  0  0  0  0  0  0  0
   -3.4336    0.9960   -0.1505 C   0  0  0  0  0  0  0  0  0  0  0  0
   -4.8154   -0.9777    0.0270 C   0  0  0  0  0  0  0  0  0  0  0  0
   -4.5169    1.7885    0.2288 C   0  0  0  0  0  0  0  0  0  0  0  0
   -5.8988   -0.1852    0.4064 C   0  0  0  0  0  0  0  0  0  0  0  0
   -5.7495    1.1979    0.5074 C   0  0  0  0  0  0  0  0  0  0  0  0
  1 11  1  0
  2 14  1  0
  2 19  1  0
  3 18  2  0
  4 25  1  0
  5  6  1  0
  5  7  1  0
  5  8  1  0
  5  9  1  0
  6 10  2  0
  6 11  1  0
  9 16  2  0
 10 12  1  0
 11 13  2  0
 12 14  2  0
 12 15  1  0
 13 14  1  0
 15 17  2  0
 17 18  1  0
 18 20  1  0
 20 21  1  0
 20 22  2  0
 21 23  2  0
 22 24  1  0
 23 25  1  0
 24 25  2  0
M  END
>  <KEY>
LICOCHALCONE_A

>  <NAME>
Licochalcone A

>  <SOURCE>
pubchem-3d:5318998

>  <SMILES>
C=CC(C)(C)c1cc(/C=C/C(=O)c2ccc(O)cc2)c(OC)cc1O

>  <FORMULA>
C21H22O4

>  <MW>
338.40

>  <HEAVY_ATOMS>
25

>  <ROTATABLE_BONDS>
6

$$$$
