LIMONIN
     RDKit          3D

 34 40  0  0  1  0  0  0  0  0999 V2000
    1.9971    1.3926   -1.9112 O   0  0  0  0  0  0  0  0  0  0  0  0
   -4.2252   -0.7729    1.4010 O   0  0  0  0  0  0  0  0  0  0  0  0
    4.1995    1.1076   -0.0311 O   0  0  0  0  0  0  0  0  0  0  0  0
   -4.3279   -0.9793   -1.5255 O   0  0  0  0  0  0  0  0  0  0  0  0
   -0.0922    3.1479    0.6941 O   0  0  0  0  0  0  0  0  0  0  0  0
    4.2300    3.3687   -0.2157 O   0  0  0  0  0  0  0  0  0  0  0  0
   -5.3208   -3.0039   -1.3721 O   0  0  0  0  0  0  0  0  0  0  0  0
    5.3613   -3.3105    0.4003 O   0  0  0  0  0  0  0  0  0  0  0  0
    1.3660    1.0610   -0.6441 C   0  0  1  0  0  0  0  0  0  0  0  0
   -0.2051    1.1406   -0.7075 C   0  0  1  0  0  0  0  0  0  0  0  0
   -0.8246   -0.2127   -0.1492 C   0  0  1  0  0  0  0  0  0  0  0  0
   -2.3931   -0.2364   -0.0436 C   0  0  2  0  0  0  0  0  0  0  0  0
    2.0324   -0.1515    0.0179 C   0  0  1  0  0  0  0  0  0  0  0  0
    2.2373    2.2919   -0.8341 C   0  0  1  0  0  0  0  0  0  0  0  0
   -2.7159    0.9430    0.9028 C   0  0  1  0  0  0  0  0  0  0  0  0
   -0.1511   -1.4265   -0.7734 C   0  0  0  0  0  0  0  0  0  0  0  0
    1.3688   -1.4481   -0.5358 C   0  0  0  0  0  0  0  0  0  0  0  0
   -3.0181   -1.3461    0.8137 C   0  0  2  0  0  0  0  0  0  0  0  0
   -0.7894    2.2767    0.1746 C   0  0  0  0  0  0  0  0  0  0  0  0
   -2.3092    2.3022    0.3710 C   0  0  0  0  0  0  0  0  0  0  0  0
   -4.1161    0.6703    1.4359 C   0  0  0  0  0  0  0  0  0  0  0  0
    3.5662   -0.1594   -0.3762 C   0  0  2  0  0  0  0  0  0  0  0  0
   -0.6161    1.4711   -2.1654 C   0  0  0  0  0  0  0  0  0  0  0  0
   -3.0816   -0.2520   -1.4292 C   0  0  0  0  0  0  0  0  0  0  0  0
    1.9247   -0.0180    1.5594 C   0  0  0  0  0  0  0  0  0  0  0  0
    3.6336    2.3076   -0.3507 C   0  0  0  0  0  0  0  0  0  0  0  0
   -3.4266   -2.5806    0.0309 C   0  0  0  0  0  0  0  0  0  0  0  0
   -5.2566    1.3020    0.6396 C   0  0  0  0  0  0  0  0  0  0  0  0
   -4.2557    1.0983    2.9028 C   0  0  0  0  0  0  0  0  0  0  0  0
    4.3758   -1.3133    0.1931 C   0  0  0  0  0  0  0  0  0  0  0  0
   -4.4425   -2.2262   -1.0145 C   0  0  0  0  0  0  0  0  0  0  0  0
    5.0486   -1.3373    1.4303 C   0  0  0  0  0  0  0  0  0  0  0  0
    4.5904   -2.5282   -0.3997 C   0  0  0  0  0  0  0  0  0  0  0  0
    5.6359   -2.5784    1.5118 C   0  0  0  0  0  0  0  0  0  0  0  0
  9  1  1  6
 14  1  1  6
  2 18  1  0
  2 21  1  0
  3 22  1  0
  3 26  1  0
  4 24  1  0
  4 31  1  0
  5 19  2  0
  6 26  2  0
  7 31  2  0
  8 33  1  0
  8 34  1  0
  9 10  1  0
  9 13  1  0
  9 14  1  0
 10 11  1  0
 10 19  1  0
 10 23  1  6
 11 12  1  0
 11 16  1  6
 12 15  1  0
 12 18  1  0
 12 24  1  6
 13 17  1  0
 13 22  1  0
 13 25  1  1
 14 26  1  0
 15 20  1  6
 15 21  1  0
 16 17  1  0
 18 27  1  6
 19 20  1  0
 21 28  1  0
 21 29  1  0
 22 30  1  1
 27 31  1  0
 30 32  1  0
 30 33  2  0
 32 34  2  0
M  END
>  <KEY>
LIMONIN

>  <NAME>
Limonin

>  <SOURCE>
pubchem-3d:179651

>  <SMILES>
CC1(C)O[C@H]2CC(=O)OC[C@]23[C@H]2CC[C@@]4(C)[C@H](c5ccoc5)OC(=O)[C@H]5O[C@]54[C@]2(C)C(=O)C[C@@H]13

>  <FORMULA>
C26H30O8

>  <MW>
470.52

>  <HEAVY_ATOMS>
34

>  <ROTATABLE_BONDS>
1

$$$$
