LUPEOL
     RDKit          3D

 31 35  0  0  1  0  0  0  0  0999 V2000
   -5.8132    1.6024    0.9021 O   0  0  0  0  0  0  0  0  0  0  0  0
   -0.4748   -1.0328    0.2422 C   0  0  1  0  0  0  0  0  0  0  0  0
    1.0209   -1.0594   -0.4060 C   0  0  1  0  0  0  0  0  0  0  0  0
   -1.0743    0.4210    0.0655 C   0  0  1  0  0  0  0  0  0  0  0  0
    1.9040    0.0418    0.3176 C   0  0  1  0  0  0  0  0  0  0  0  0
   -2.6277    0.6170    0.3660 C   0  0  2  0  0  0  0  0  0  0  0  0
    3.3720   -0.0287   -0.1541 C   0  0  2  0  0  0  0  0  0  0  0  0
    3.9892   -1.4153    0.1497 C   0  0  1  0  0  0  0  0  0  0  0  0
   -3.4214   -0.4969   -0.4021 C   0  0  1  0  0  0  0  0  0  0  0  0
    1.7096   -2.4654   -0.2708 C   0  0  0  0  0  0  0  0  0  0  0  0
   -1.4159   -2.0523   -0.4560 C   0  0  0  0  0  0  0  0  0  0  0  0
   -0.1606    1.4824    0.7202 C   0  0  0  0  0  0  0  0  0  0  0  0
    1.2787    1.4379    0.1982 C   0  0  0  0  0  0  0  0  0  0  0  0
    3.2123   -2.4888   -0.6230 C   0  0  0  0  0  0  0  0  0  0  0  0
   -2.8937   -1.9089   -0.0799 C   0  0  0  0  0  0  0  0  0  0  0  0
    4.4203    0.9493    0.4088 C   0  0  1  0  0  0  0  0  0  0  0  0
   -4.9975   -0.3725   -0.3558 C   0  0  0  0  0  0  0  0  0  0  0  0
   -3.0651    2.0170   -0.1994 C   0  0  0  0  0  0  0  0  0  0  0  0
   -0.4046   -1.4451    1.7436 C   0  0  0  0  0  0  0  0  0  0  0  0
    0.9673   -0.7790   -1.9480 C   0  0  0  0  0  0  0  0  0  0  0  0
    5.4246   -1.1865   -0.3422 C   0  0  0  0  0  0  0  0  0  0  0  0
    5.7676    0.2385    0.1292 C   0  0  0  0  0  0  0  0  0  0  0  0
   -2.9247    0.6213    1.8835 C   0  0  0  0  0  0  0  0  0  0  0  0
   -5.4525    1.1221   -0.3905 C   0  0  2  0  0  0  0  0  0  0  0  0
   -4.3835    2.0340   -0.9813 C   0  0  0  0  0  0  0  0  0  0  0  0
    4.0431   -1.7967    1.6514 C   0  0  0  0  0  0  0  0  0  0  0  0
    4.3970    2.3131   -0.2029 C   0  0  0  0  0  0  0  0  0  0  0  0
   -5.5588   -1.0420   -1.6443 C   0  0  0  0  0  0  0  0  0  0  0  0
   -5.6382   -1.1203    0.8326 C   0  0  0  0  0  0  0  0  0  0  0  0
    4.5667    2.3733   -1.6919 C   0  0  0  0  0  0  0  0  0  0  0  0
    4.2332    3.4194    0.5376 C   0  0  0  0  0  0  0  0  0  0  0  0
 24  1  1  1
  2  3  1  0
  2  4  1  0
  2 11  1  0
  2 19  1  1
  3  5  1  0
  3 10  1  0
  3 20  1  6
  4  6  1  0
  4 12  1  1
  5  7  1  0
  5 13  1  6
  6  9  1  0
  6 18  1  0
  6 23  1  1
  7  8  1  0
  7 16  1  1
  8 14  1  0
  8 21  1  0
  8 26  1  1
  9 15  1  1
  9 17  1  0
 10 14  1  0
 11 15  1  0
 12 13  1  0
 16 22  1  0
 16 27  1  6
 17 24  1  0
 17 28  1  0
 17 29  1  0
 18 25  1  0
 21 22  1  0
 24 25  1  0
 27 30  1  0
 27 31  2  0
M  END
>  <KEY>
LUPEOL

>  <NAME>
Lupeol

>  <SOURCE>
pubchem-3d:259846

>  <SMILES>
C=C(C)[C@@H]1CC[C@]2(C)CC[C@]3(C)[C@H](CC[C@@H]4[C@@]5(C)CC[C@H](O)C(C)(C)[C@@H]5CC[C@]43C)[C@@H]12

>  <FORMULA>
C30H50O

>  <MW>
426.73

>  <HEAVY_ATOMS>
31

>  <ROTATABLE_BONDS>
1

$$$$
