LUTEOLIN
     RDKit          3D

 21 23  0  0  0  0  0  0  0  0999 V2000
   -2.5886   -1.4947    0.0401 C   0  0  0  0  0  0  0  0  0  0  0  0
   -4.7584   -2.4045    0.3369 O   0  0  0  0  0  0  0  0  0  0  0  0
   -3.8364   -1.4557    0.6414 C   0  0  0  0  0  0  0  0  0  0  0  0
   -3.5287    1.4930    2.7612 O   0  0  0  0  0  0  0  0  0  0  0  0
   -4.1534   -0.4554    1.5540 C   0  0  0  0  0  0  0  0  0  0  0  0
   -1.1570    2.3984    2.3696 O   0  0  0  0  0  0  0  0  0  0  0  0
   -3.2217    0.5150    1.8719 C   0  0  0  0  0  0  0  0  0  0  0  0
   -0.4208   -0.5521   -0.2303 O   0  0  0  0  0  0  0  0  0  0  0  0
   -1.9587    0.4831    1.2678 C   0  0  0  0  0  0  0  0  0  0  0  0
    3.5351   -1.8629   -3.0527 O   0  0  0  0  0  0  0  0  0  0  0  0
   -1.6405   -0.5301    0.3460 C   0  0  0  0  0  0  0  0  0  0  0  0
    5.4926   -0.0042   -2.5200 O   0  0  0  0  0  0  0  0  0  0  0  0
   -0.9359    1.4963    1.5777 C   0  0  0  0  0  0  0  0  0  0  0  0
    0.3123    1.3853    0.9206 C   0  0  0  0  0  0  0  0  0  0  0  0
    0.5193    0.3653    0.0441 C   0  0  0  0  0  0  0  0  0  0  0  0
    1.8274    0.2665   -0.6314 C   0  0  0  0  0  0  0  0  0  0  0  0
    2.0696   -0.7688   -1.5388 C   0  0  0  0  0  0  0  0  0  0  0  0
    3.2959   -0.8572   -2.1695 C   0  0  0  0  0  0  0  0  0  0  0  0
    4.2877    0.0848   -1.9002 C   0  0  0  0  0  0  0  0  0  0  0  0
    4.0472    1.1121   -0.9984 C   0  0  0  0  0  0  0  0  0  0  0  0
    2.8238    1.2102   -0.3710 C   0  0  0  0  0  0  0  0  0  0  0  0
  1  3  1  0
  1 11  2  0
  2  3  1  0
  3  5  2  0
  5  7  1  0
  7  4  1  0
  8 11  1  0
  8 15  1  0
  9  7  2  0
  9 13  1  0
 11  9  1  0
 12 19  1  0
 13  6  2  0
 14 13  1  0
 15 14  2  0
 16 15  1  0
 16 17  2  0
 18 10  1  0
 18 17  1  0
 19 18  2  0
 20 19  1  0
 20 21  2  0
 21 16  1  0
M  END
>  <KEY>
LUTEOLIN

>  <NAME>
Luteolin

>  <SOURCE>
rcsb-ccd:LU2

>  <SMILES>
O=c1cc(-c2ccc(O)c(O)c2)oc2cc(O)cc(O)c12

>  <FORMULA>
C15H10O6

>  <MW>
286.24

>  <HEAVY_ATOMS>
21

>  <ROTATABLE_BONDS>
1

$$$$
