LYCORINE
     RDKit          3D

 21 25  0  0  1  0  0  0  0  0999 V2000
    2.5340   -2.7920    0.0520 C   0  0  0  0  0  0  0  0  0  0  0  0
    0.0690   -2.4080   -0.0220 C   0  0  0  0  0  0  0  0  0  0  0  0
   -0.9350   -1.2730    0.0340 C   0  0  0  0  0  0  0  0  0  0  0  0
   -2.2770   -1.6260   -0.1130 C   0  0  0  0  0  0  0  0  0  0  0  0
   -3.2260   -0.6170   -0.0700 C   0  0  0  0  0  0  0  0  0  0  0  0
   -2.8490    0.7220    0.1150 C   0  0  0  0  0  0  0  0  0  0  0  0
   -1.5160    1.0700    0.2620 C   0  0  0  0  0  0  0  0  0  0  0  0
   -0.5710    0.0510    0.2180 C   0  0  0  0  0  0  0  0  0  0  0  0
    0.8810    0.4150    0.3800 C   0  0  1  0  0  0  0  0  0  0  0  0
    1.6660   -0.6960   -0.3340 C   0  0  1  0  0  0  0  0  0  0  0  0
    3.1400   -0.4370   -0.0920 C   0  0  0  0  0  0  0  0  0  0  0  0
    3.6270    0.7610   -0.0130 C   0  0  0  0  0  0  0  0  0  0  0  0
    2.7740    1.9920   -0.1110 C   0  0  1  0  0  0  0  0  0  0  0  0
    1.2820    1.7270   -0.2720 C   0  0  1  0  0  0  0  0  0  0  0  0
   -5.0610    0.5810    0.3220 C   0  0  0  0  0  0  0  0  0  0  0  0
    2.9680    2.7710    1.0710 O   0  0  0  0  0  0  0  0  0  0  0  0
    1.3800   -1.9470    0.4220 N   0  0  0  0  0  0  0  0  0  0  0  0
    3.7410   -1.8110    0.0780 C   0  0  0  0  0  0  0  0  0  0  0  0
    0.9640    1.6730   -1.6640 O   0  0  0  0  0  0  0  0  0  0  0  0
   -3.9610    1.4920    0.1160 O   0  0  0  0  0  0  0  0  0  0  0  0
   -4.5720   -0.6780   -0.1850 O   0  0  0  0  0  0  0  0  0  0  0  0
  1 17  1  0
  2  3  1  0
  3  8  1  0
  3  4  2  0
  4  5  1  0
  5  6  2  0
  5 21  1  0
  6 20  1  0
  7  6  1  0
  8  7  2  0
  9 14  1  0
  9  8  1  6
 10  9  1  0
 11 10  1  0
 12 11  2  0
 12 13  1  0
 13 14  1  0
 14 19  1  6
 13 16  1  1
 10 17  1  1
 17  2  1  0
 18  1  1  0
 18 11  1  0
 20 15  1  0
 21 15  1  0
M  END
>  <KEY>
LYCORINE

>  <NAME>
Lycorine

>  <SOURCE>
rcsb-ccd:3KD

>  <SMILES>
O[C@H]1[C@H]2c3cc4c(cc3CN3CCC(=C[C@@H]1O)[C@H]23)OCO4

>  <FORMULA>
C16H17NO4

>  <MW>
287.31

>  <HEAVY_ATOMS>
21

>  <ROTATABLE_BONDS>
0

$$$$
