LYCOPENE
     RDKit          3D

 40 39  0  0  0  0  0  0  0  0999 V2000
  -17.1184   -1.1886   -1.4430 C   0  0  0  0  0  0  0  0  0  0  0  0
  -15.8008   -0.6034   -1.0057 C   0  0  0  0  0  0  0  0  0  0  0  0
  -15.0737   -1.1959   -0.0383 C   0  0  0  0  0  0  0  0  0  0  0  0
  -13.7302   -0.7716    0.4950 C   0  0  0  0  0  0  0  0  0  0  0  0
  -13.8613   -0.0920    1.8659 C   0  0  0  0  0  0  0  0  0  0  0  0
  -12.5833    0.3656    2.5659 C   0  0  0  0  0  0  0  0  0  0  0  0
  -11.3504    0.1937    2.0452 C   0  0  0  0  0  0  0  0  0  0  0  0
  -10.0848    0.5930    2.6313 C   0  0  0  0  0  0  0  0  0  0  0  0
   -8.9058    0.3714    2.0240 C   0  0  0  0  0  0  0  0  0  0  0  0
   -7.5768    0.7347    2.5298 C   0  0  0  0  0  0  0  0  0  0  0  0
   -6.5016    0.4274    1.7720 C   0  0  0  0  0  0  0  0  0  0  0  0
   -5.1051    0.6879    2.0682 C   0  0  0  0  0  0  0  0  0  0  0  0
   -4.1118    0.3348    1.2337 C   0  0  0  0  0  0  0  0  0  0  0  0
   -2.6749    0.5519    1.4395 C   0  0  0  0  0  0  0  0  0  0  0  0
   -1.8231    0.1246    0.4824 C   0  0  0  0  0  0  0  0  0  0  0  0
   -0.3770    0.2314    0.4728 C   0  0  0  0  0  0  0  0  0  0  0  0
    0.3770   -0.2314   -0.5386 C   0  0  0  0  0  0  0  0  0  0  0  0
    1.8231   -0.1246   -0.5482 C   0  0  0  0  0  0  0  0  0  0  0  0
    2.6750   -0.5519   -1.5054 C   0  0  0  0  0  0  0  0  0  0  0  0
    4.1118   -0.3348   -1.2995 C   0  0  0  0  0  0  0  0  0  0  0  0
    5.1051   -0.6879   -2.1341 C   0  0  0  0  0  0  0  0  0  0  0  0
    6.5016   -0.4274   -1.8378 C   0  0  0  0  0  0  0  0  0  0  0  0
    7.5768   -0.7346   -2.5956 C   0  0  0  0  0  0  0  0  0  0  0  0
    8.9058   -0.3714   -2.0897 C   0  0  0  0  0  0  0  0  0  0  0  0
   10.0848   -0.5930   -2.6970 C   0  0  0  0  0  0  0  0  0  0  0  0
   11.3504   -0.1937   -2.1110 C   0  0  0  0  0  0  0  0  0  0  0  0
   12.5834   -0.3657   -2.6316 C   0  0  0  0  0  0  0  0  0  0  0  0
   13.8613    0.0919   -1.9315 C   0  0  0  0  0  0  0  0  0  0  0  0
   13.7302    0.7716   -0.5607 C   0  0  0  0  0  0  0  0  0  0  0  0
   15.0737    1.1959   -0.0273 C   0  0  0  0  0  0  0  0  0  0  0  0
   15.8007    0.6034    0.9401 C   0  0  0  0  0  0  0  0  0  0  0  0
   15.4164   -0.6600    1.6599 C   0  0  0  0  0  0  0  0  0  0  0  0
   17.1183    1.1885    1.3775 C   0  0  0  0  0  0  0  0  0  0  0  0
   12.8741   -1.0248   -3.9600 C   0  0  0  0  0  0  0  0  0  0  0  0
    7.5126   -1.4290   -3.9342 C   0  0  0  0  0  0  0  0  0  0  0  0
    2.2549   -1.2413   -2.7806 C   0  0  0  0  0  0  0  0  0  0  0  0
   -2.2549    1.2414    2.7147 C   0  0  0  0  0  0  0  0  0  0  0  0
   -7.5126    1.4290    3.8684 C   0  0  0  0  0  0  0  0  0  0  0  0
  -12.8740    1.0246    3.8944 C   0  0  0  0  0  0  0  0  0  0  0  0
  -15.4165    0.6600   -1.7255 C   0  0  0  0  0  0  0  0  0  0  0  0
  1  2  1  0
  2  3  2  3
  3  4  1  0
  4  5  1  0
  5  6  1  0
  6  7  2  0
  7  8  1  0
  8  9  2  0
  9 10  1  0
 10 11  2  0
 11 12  1  0
 12 13  2  0
 13 14  1  0
 14 15  2  0
 15 16  1  0
 16 17  2  0
 17 18  1  0
 18 19  2  0
 19 20  1  0
 20 21  2  0
 21 22  1  0
 22 23  2  0
 23 24  1  0
 24 25  2  0
 25 26  1  0
 26 27  2  0
 27 28  1  0
 28 29  1  0
 29 30  1  0
 30 31  2  3
 31 32  1  0
 31 33  1  0
 27 34  1  0
 23 35  1  0
 19 36  1  0
 14 37  1  0
 10 38  1  0
  6 39  1  0
  2 40  1  0
M  END
>  <KEY>
LYCOPENE

>  <NAME>
Lycopene

>  <SOURCE>
rdkit-etkdg:446925

>  <SMILES>
CC(C)=CCC/C(C)=C/C=C/C(C)=C/C=C/C(C)=C/C=C/C=C(C)/C=C/C=C(C)/C=C/C=C(\C)CCC=C(C)C

>  <FORMULA>
C40H56

>  <MW>
536.89

>  <HEAVY_ATOMS>
40

>  <ROTATABLE_BONDS>
16

$$$$
