MAGNOLOL
     RDKit          3D

 20 21  0  0  0  0  0  0  0  0999 V2000
    5.4080    2.0160    1.3070 C   0  0  0  0  0  0  0  0  0  0  0  0
   -4.0630    3.4550   -0.5610 C   0  0  0  0  0  0  0  0  0  0  0  0
    0.5490   -2.7430   -1.2250 O   0  0  0  0  0  0  0  0  0  0  0  0
   -0.2740   -2.3530    1.6230 O   0  0  0  0  0  0  0  0  0  0  0  0
    4.1140    1.8540    1.1890 C   0  0  0  0  0  0  0  0  0  0  0  0
   -4.2230    2.2930    0.0240 C   0  0  0  0  0  0  0  0  0  0  0  0
    2.5790   -1.5100   -1.3400 C   0  0  0  0  0  0  0  0  0  0  0  0
   -2.5270   -1.6230    1.4110 C   0  0  0  0  0  0  0  0  0  0  0  0
    3.2880   -0.3520   -1.0830 C   0  0  0  0  0  0  0  0  0  0  0  0
   -3.4620   -0.7930    0.8210 C   0  0  0  0  0  0  0  0  0  0  0  0
    1.3500    0.6330   -0.0740 C   0  0  0  0  0  0  0  0  0  0  0  0
   -1.7500    0.2150   -0.5190 C   0  0  0  0  0  0  0  0  0  0  0  0
    3.4600    1.9700   -0.1640 C   0  0  0  0  0  0  0  0  0  0  0  0
   -4.1020    1.0230   -0.7770 C   0  0  0  0  0  0  0  0  0  0  0  0
    1.2470   -1.6050   -0.9720 C   0  0  0  0  0  0  0  0  0  0  0  0
   -1.1950   -1.5410    1.0400 C   0  0  0  0  0  0  0  0  0  0  0  0
    2.6750    0.7160   -0.4520 C   0  0  0  0  0  0  0  0  0  0  0  0
   -3.0740    0.1230   -0.1400 C   0  0  0  0  0  0  0  0  0  0  0  0
    0.6230   -0.5260   -0.3390 C   0  0  0  0  0  0  0  0  0  0  0  0
   -0.8010   -0.6200    0.0650 C   0  0  0  0  0  0  0  0  0  0  0  0
  1  5  2  0
  2  6  2  0
  3 15  1  0
  4 16  1  0
  6 14  1  0
  7  9  2  0
  8 16  1  0
 10  8  2  0
 10 18  1  0
 11 17  2  0
 12 20  1  0
 13  5  1  0
 14 18  1  0
 15  7  1  0
 16 20  2  0
 17  9  1  0
 17 13  1  0
 18 12  2  0
 19 11  1  0
 19 15  2  0
 20 19  1  0
M  END
>  <KEY>
MAGNOLOL

>  <NAME>
Magnolol

>  <SOURCE>
rcsb-ccd:MLO

>  <SMILES>
C=CCc1ccc(O)c(-c2cc(CC=C)ccc2O)c1

>  <FORMULA>
C18H18O2

>  <MW>
266.34

>  <HEAVY_ATOMS>
20

>  <ROTATABLE_BONDS>
5

$$$$
