MANGIFERIN
     RDKit          3D

 30 33  0  0  1  0  0  0  0  0999 V2000
    2.4810   -0.2940    0.2780 C   0  0  2  0  0  0  0  0  0  0  0  0
    4.5370    0.7160    0.9850 C   0  0  2  0  0  0  0  0  0  0  0  0
    5.1870    2.0720    1.2700 C   0  0  0  0  0  0  0  0  0  0  0  0
    5.3250   -0.0070   -0.1110 C   0  0  2  0  0  0  0  0  0  0  0  0
    4.6350   -1.3360   -0.4330 C   0  0  1  0  0  0  0  0  0  0  0  0
    3.1860   -1.0590   -0.8450 C   0  0  1  0  0  0  0  0  0  0  0  0
    1.0720    0.0340   -0.1440 C   0  0  0  0  0  0  0  0  0  0  0  0
    0.8410    1.0500   -1.0650 C   0  0  0  0  0  0  0  0  0  0  0  0
   -0.4480    1.3630   -1.4670 C   0  0  0  0  0  0  0  0  0  0  0  0
   -1.5300    0.6630   -0.9510 C   0  0  0  0  0  0  0  0  0  0  0  0
   -3.8680    0.5520   -0.6720 C   0  0  0  0  0  0  0  0  0  0  0  0
   -5.1030    1.1430   -0.9110 C   0  0  0  0  0  0  0  0  0  0  0  0
   -6.2240    0.7140   -0.2250 C   0  0  0  0  0  0  0  0  0  0  0  0
   -6.1320   -0.3170    0.7150 C   0  0  0  0  0  0  0  0  0  0  0  0
   -4.9130   -0.9120    0.9670 C   0  0  0  0  0  0  0  0  0  0  0  0
   -3.7790   -0.4770    0.2800 C   0  0  0  0  0  0  0  0  0  0  0  0
   -2.4560   -1.0820    0.5400 C   0  0  0  0  0  0  0  0  0  0  0  0
   -1.2970   -0.3590   -0.0140 C   0  0  0  0  0  0  0  0  0  0  0  0
    0.0090   -0.6790    0.3790 C   0  0  0  0  0  0  0  0  0  0  0  0
    3.1910    0.9150    0.5490 O   0  0  0  0  0  0  0  0  0  0  0  0
    4.5220    2.6970    2.3700 O   0  0  0  0  0  0  0  0  0  0  0  0
    6.6560   -0.2580    0.3450 O   0  0  0  0  0  0  0  0  0  0  0  0
    5.3210   -1.9840   -1.5050 O   0  0  0  0  0  0  0  0  0  0  0  0
    2.5100   -2.2960   -1.0780 O   0  0  0  0  0  0  0  0  0  0  0  0
    1.8900    1.7430   -1.5760 O   0  0  0  0  0  0  0  0  0  0  0  0
   -2.7810    0.9650   -1.3550 O   0  0  0  0  0  0  0  0  0  0  0  0
   -7.4260    1.2990   -0.4660 O   0  0  0  0  0  0  0  0  0  0  0  0
   -7.2430   -0.7320    1.3800 O   0  0  0  0  0  0  0  0  0  0  0  0
   -2.3300   -2.1140    1.1740 O   0  0  0  0  0  0  0  0  0  0  0  0
    0.2290   -1.6770    1.2710 O   0  0  0  0  0  0  0  0  0  0  0  0
  1  7  1  6
  2 20  1  0
  2  3  1  6
  3 21  1  0
  4 22  1  1
  4  5  1  0
  4  2  1  0
  5  6  1  0
  6 24  1  1
  6  1  1  0
  7  8  2  0
  7 19  1  0
  8  9  1  0
  9 10  2  0
 10 18  1  0
 10 26  1  0
 11 16  2  0
 11 12  1  0
 12 13  2  0
 13 14  1  0
 13 27  1  0
 14 28  1  0
 15 14  2  0
 16 15  1  0
 17 29  2  0
 17 16  1  0
 18 17  1  0
 19 18  2  0
 20  1  1  0
  5 23  1  6
 25  8  1  0
 26 11  1  0
 30 19  1  0
M  END
>  <KEY>
MANGIFERIN

>  <NAME>
Mangiferin

>  <SOURCE>
rcsb-ccd:HZI

>  <SMILES>
O=c1c2cc(O)c(O)cc2oc2cc(O)c([C@@H]3O[C@H](CO)[C@@H](O)[C@H](O)[C@H]3O)c(O)c12

>  <FORMULA>
C19H18O11

>  <MW>
422.34

>  <HEAVY_ATOMS>
30

>  <ROTATABLE_BONDS>
2

$$$$
