MATAIRESINOL
     RDKit          3D

 26 28  0  0  1  0  0  0  0  0999 V2000
   -3.8590    0.9420   -0.1410 C   0  0  0  0  0  0  0  0  0  0  0  0
   -5.1870    0.8120    0.2310 C   0  0  0  0  0  0  0  0  0  0  0  0
   -5.8610   -0.3810   -0.0110 C   0  0  0  0  0  0  0  0  0  0  0  0
   -5.2030   -1.4310   -0.6330 C   0  0  0  0  0  0  0  0  0  0  0  0
   -3.8780   -1.2950   -1.0010 C   0  0  0  0  0  0  0  0  0  0  0  0
   -3.2070   -0.1110   -0.7560 C   0  0  0  0  0  0  0  0  0  0  0  0
   -1.7620    0.0320   -1.1590 C   0  0  0  0  0  0  0  0  0  0  0  0
   -0.8640   -0.4200   -0.0060 C   0  0  1  0  0  0  0  0  0  0  0  0
   -0.9770   -1.9440    0.2100 C   0  0  0  0  0  0  0  0  0  0  0  0
    0.3950   -2.4030    0.4020 O   0  0  0  0  0  0  0  0  0  0  0  0
    1.2100   -1.6260   -0.3350 C   0  0  0  0  0  0  0  0  0  0  0  0
    0.6260   -0.2240   -0.3650 C   0  0  2  0  0  0  0  0  0  0  0  0
    2.2300   -1.9810   -0.8770 O   0  0  0  0  0  0  0  0  0  0  0  0
    1.3190    0.6650    0.6690 C   0  0  0  0  0  0  0  0  0  0  0  0
    2.7580    0.8700    0.2710 C   0  0  0  0  0  0  0  0  0  0  0  0
    3.1050    1.9360   -0.5380 C   0  0  0  0  0  0  0  0  0  0  0  0
    4.4240    2.1280   -0.9060 C   0  0  0  0  0  0  0  0  0  0  0  0
    5.4020    1.2510   -0.4630 C   0  0  0  0  0  0  0  0  0  0  0  0
    5.0520    0.1790    0.3520 C   0  0  0  0  0  0  0  0  0  0  0  0
    3.7290   -0.0050    0.7210 C   0  0  0  0  0  0  0  0  0  0  0  0
    6.0080   -0.6850    0.7890 O   0  0  0  0  0  0  0  0  0  0  0  0
    5.3450   -1.6620    1.5930 C   0  0  0  0  0  0  0  0  0  0  0  0
    6.6990    1.4390   -0.8240 O   0  0  0  0  0  0  0  0  0  0  0  0
   -7.1650   -0.5140    0.3520 O   0  0  0  0  0  0  0  0  0  0  0  0
   -5.8300    1.8470    0.8350 O   0  0  0  0  0  0  0  0  0  0  0  0
   -4.8840    2.9120    0.9470 C   0  0  0  0  0  0  0  0  0  0  0  0
  1  2  1  0
  1  6  2  0
  2  3  2  0
  2 25  1  0
  3  4  1  0
  3 24  1  0
  4  5  2  0
  5  6  1  0
  6  7  1  0
  8  7  1  6
  8  9  1  0
  8 12  1  0
  9 10  1  0
 10 11  1  0
 11 12  1  0
 11 13  2  0
 12 14  1  1
 14 15  1  0
 15 16  1  0
 15 20  2  0
 16 17  2  0
 17 18  1  0
 18 19  2  0
 18 23  1  0
 19 20  1  0
 19 21  1  0
 21 22  1  0
 25 26  1  0
M  END
>  <KEY>
MATAIRESINOL

>  <NAME>
Matairesinol

>  <SOURCE>
rcsb-ccd:MAX

>  <SMILES>
COc1cc(C[C@H]2COC(=O)[C@@H]2Cc2ccc(O)c(OC)c2)ccc1O

>  <FORMULA>
C20H22O6

>  <MW>
358.39

>  <HEAVY_ATOMS>
26

>  <ROTATABLE_BONDS>
6

$$$$
