MATRINE
     RDKit          3D

 18 21  0  0  1  0  0  0  0  0999 V2000
   -3.0029   -2.2721    0.2733 O   0  0  0  0  0  0  0  0  0  0  0  0
    2.1304    0.2918    0.5156 N   0  0  0  0  0  0  0  0  0  0  0  0
   -1.3679   -0.6363    0.0105 N   0  0  0  0  0  0  0  0  0  0  0  0
    1.3888    0.0748   -0.7475 C   0  0  2  0  0  0  0  0  0  0  0  0
    0.2118    1.0736   -0.9091 C   0  0  1  0  0  0  0  0  0  0  0  0
    0.8459   -1.3663   -0.8509 C   0  0  2  0  0  0  0  0  0  0  0  0
   -0.9574    0.7849    0.0820 C   0  0  1  0  0  0  0  0  0  0  0  0
   -0.2897   -1.6151    0.1470 C   0  0  0  0  0  0  0  0  0  0  0  0
    0.7621    2.5072   -0.8192 C   0  0  0  0  0  0  0  0  0  0  0  0
    1.9775   -2.3855   -0.6722 C   0  0  0  0  0  0  0  0  0  0  0  0
    2.6507    1.6666    0.6061 C   0  0  0  0  0  0  0  0  0  0  0  0
    3.2491   -0.6578    0.6467 C   0  0  0  0  0  0  0  0  0  0  0  0
   -2.1202    1.7607   -0.1432 C   0  0  0  0  0  0  0  0  0  0  0  0
    1.5507    2.7164    0.4667 C   0  0  0  0  0  0  0  0  0  0  0  0
    2.7856   -2.1116    0.5907 C   0  0  0  0  0  0  0  0  0  0  0  0
   -3.3562    1.2998    0.6013 C   0  0  0  0  0  0  0  0  0  0  0  0
   -2.6837   -1.0862    0.1495 C   0  0  0  0  0  0  0  0  0  0  0  0
   -3.7745   -0.0448    0.0529 C   0  0  0  0  0  0  0  0  0  0  0  0
  1 17  2  0
  4  2  1  1
  2 11  1  0
  2 12  1  0
  3  7  1  0
  3  8  1  0
  3 17  1  0
  4  5  1  0
  4  6  1  0
  5  7  1  0
  5  9  1  1
  6  8  1  1
  6 10  1  0
  7 13  1  6
  9 14  1  0
 10 15  1  0
 11 14  1  0
 12 15  1  0
 13 16  1  0
 16 18  1  0
 17 18  1  0
M  END
>  <KEY>
MATRINE

>  <NAME>
Matrine

>  <SOURCE>
pubchem-3d:91466

>  <SMILES>
O=C1CCC[C@@H]2[C@H]3CCCN4CCC[C@@H](CN12)[C@@H]34

>  <FORMULA>
C15H24N2O

>  <MW>
248.37

>  <HEAVY_ATOMS>
18

>  <ROTATABLE_BONDS>
0

$$$$
