MORIN
     RDKit          3D

 22 24  0  0  0  0  0  0  0  0999 V2000
   -0.9570    2.5150    0.2490 O   0  0  0  0  0  0  0  0  0  0  0  0
   -0.0960    1.4700    0.1060 C   0  0  0  0  0  0  0  0  0  0  0  0
    1.3030    1.6850    0.1670 C   0  0  0  0  0  0  0  0  0  0  0  0
    1.7670    2.8000    0.3460 O   0  0  0  0  0  0  0  0  0  0  0  0
    2.1770    0.5110    0.0050 C   0  0  0  0  0  0  0  0  0  0  0  0
    3.5720    0.6320    0.0520 C   0  0  0  0  0  0  0  0  0  0  0  0
    4.1470    1.8460    0.2490 O   0  0  0  0  0  0  0  0  0  0  0  0
    4.3580   -0.4940   -0.1030 C   0  0  0  0  0  0  0  0  0  0  0  0
    3.7670   -1.7370   -0.3050 C   0  0  0  0  0  0  0  0  0  0  0  0
    4.5490   -2.8360   -0.4560 O   0  0  0  0  0  0  0  0  0  0  0  0
    2.3880   -1.8640   -0.3520 C   0  0  0  0  0  0  0  0  0  0  0  0
    1.5820   -0.7460   -0.1980 C   0  0  0  0  0  0  0  0  0  0  0  0
    0.2370   -0.8540   -0.2410 O   0  0  0  0  0  0  0  0  0  0  0  0
   -0.5730    0.2080   -0.0900 C   0  0  0  0  0  0  0  0  0  0  0  0
   -2.0300    0.0010   -0.1440 C   0  0  0  0  0  0  0  0  0  0  0  0
   -2.8050    0.7000   -1.0740 C   0  0  0  0  0  0  0  0  0  0  0  0
   -4.1660    0.5030   -1.1220 C   0  0  0  0  0  0  0  0  0  0  0  0
   -4.7760   -0.3900   -0.2470 C   0  0  0  0  0  0  0  0  0  0  0  0
   -6.1200   -0.5780   -0.3010 O   0  0  0  0  0  0  0  0  0  0  0  0
   -4.0170   -1.0890    0.6800 C   0  0  0  0  0  0  0  0  0  0  0  0
   -2.6470   -0.9040    0.7340 C   0  0  0  0  0  0  0  0  0  0  0  0
   -1.9020   -1.5910    1.6370 O   0  0  0  0  0  0  0  0  0  0  0  0
  1  2  1  0
  2 14  2  0
  3  5  1  0
  3  2  1  0
  4  3  2  0
  5 12  1  0
  6  8  1  0
  6  5  2  0
  7  6  1  0
  8  9  2  0
  9 10  1  0
  9 11  1  0
 12 11  2  0
 12 13  1  0
 14 13  1  0
 14 15  1  0
 15 21  2  0
 15 16  1  0
 16 17  2  0
 17 18  1  0
 18 19  1  0
 20 18  2  0
 21 20  1  0
 22 21  1  0
M  END
>  <KEY>
MORIN

>  <NAME>
Morin

>  <SOURCE>
rcsb-ccd:MRI

>  <SMILES>
O=c1c(O)c(-c2ccc(O)cc2O)oc2cc(O)cc(O)c12

>  <FORMULA>
C15H10O7

>  <MW>
302.24

>  <HEAVY_ATOMS>
22

>  <ROTATABLE_BONDS>
1

$$$$
