MYRICETIN
     RDKit          3D

 23 25  0  0  0  0  0  0  0  0999 V2000
    0.5320    0.1460    4.7410 C   0  0  0  0  0  0  0  0  0  0  0  0
   -0.5820   -0.0990    3.9620 C   0  0  0  0  0  0  0  0  0  0  0  0
   -0.4640   -0.0850    2.5660 C   0  0  0  0  0  0  0  0  0  0  0  0
    0.7770    0.1760    1.9630 C   0  0  0  0  0  0  0  0  0  0  0  0
    1.8830    0.4260    2.7610 C   0  0  0  0  0  0  0  0  0  0  0  0
    1.7610    0.4050    4.1420 C   0  0  0  0  0  0  0  0  0  0  0  0
   -1.6260   -0.3410    1.7000 C   0  0  0  0  0  0  0  0  0  0  0  0
   -1.4150   -0.3070    0.2970 C   0  0  0  0  0  0  0  0  0  0  0  0
   -0.1690   -0.0440   -0.1860 C   0  0  0  0  0  0  0  0  0  0  0  0
    0.0320   -0.0120   -1.6460 C   0  0  0  0  0  0  0  0  0  0  0  0
   -0.8490    0.7030   -2.4600 C   0  0  0  0  0  0  0  0  0  0  0  0
   -0.6570    0.7300   -3.8290 C   0  0  0  0  0  0  0  0  0  0  0  0
    0.4130    0.0460   -4.3970 C   0  0  0  0  0  0  0  0  0  0  0  0
    1.2940   -0.6670   -3.5890 C   0  0  0  0  0  0  0  0  0  0  0  0
    1.1100   -0.6940   -2.2190 C   0  0  0  0  0  0  0  0  0  0  0  0
    0.8810    0.1870    0.6170 O   0  0  0  0  0  0  0  0  0  0  0  0
   -2.7290   -0.5740    2.1700 O   0  0  0  0  0  0  0  0  0  0  0  0
    2.3390   -1.3350   -4.1470 O   0  0  0  0  0  0  0  0  0  0  0  0
    0.6000    0.0750   -5.7430 O   0  0  0  0  0  0  0  0  0  0  0  0
   -1.5140    1.4270   -4.6220 O   0  0  0  0  0  0  0  0  0  0  0  0
   -2.4490   -0.5360   -0.5570 O   0  0  0  0  0  0  0  0  0  0  0  0
    2.8490    0.6450    4.9170 O   0  0  0  0  0  0  0  0  0  0  0  0
   -1.7810   -0.3510    4.5450 O   0  0  0  0  0  0  0  0  0  0  0  0
  1  2  1  0
  1  6  2  0
  2  3  2  0
  2 23  1  0
  3  4  1  0
  3  7  1  0
  4  5  2  0
  4 16  1  0
  5  6  1  0
  6 22  1  0
  7  8  1  0
  7 17  2  0
  8  9  2  0
  8 21  1  0
  9 10  1  0
  9 16  1  0
 10 11  1  0
 10 15  2  0
 11 12  2  0
 12 13  1  0
 12 20  1  0
 13 14  2  0
 13 19  1  0
 14 15  1  0
 14 18  1  0
M  END
>  <KEY>
MYRICETIN

>  <NAME>
Myricetin

>  <SOURCE>
rcsb-ccd:MYC

>  <SMILES>
O=c1c(O)c(-c2cc(O)c(O)c(O)c2)oc2cc(O)cc(O)c12

>  <FORMULA>
C15H10O8

>  <MW>
318.24

>  <HEAVY_ATOMS>
23

>  <ROTATABLE_BONDS>
1

$$$$
