NARINGENIN
     RDKit          3D

 20 22  0  0  1  0  0  0  0  0999 V2000
    1.8160    0.0370   -2.1290 C   0  0  0  0  0  0  0  0  0  0  0  0
    1.7240    0.1390   -3.5090 C   0  0  0  0  0  0  0  0  0  0  0  0
    0.4880    0.0960   -4.1440 C   0  0  0  0  0  0  0  0  0  0  0  0
   -0.6650   -0.0380   -3.3940 C   0  0  0  0  0  0  0  0  0  0  0  0
   -0.5770   -0.1250   -1.9950 C   0  0  0  0  0  0  0  0  0  0  0  0
    0.6720   -0.1060   -1.3540 C   0  0  0  0  0  0  0  0  0  0  0  0
   -1.8000   -0.2290   -1.1860 C   0  0  0  0  0  0  0  0  0  0  0  0
   -1.5770   -0.4830    0.2970 C   0  0  0  0  0  0  0  0  0  0  0  0
   -0.3060    0.2950    0.6720 C   0  0  2  0  0  0  0  0  0  0  0  0
    0.8090   -0.2430   -0.0190 O   0  0  0  0  0  0  0  0  0  0  0  0
   -2.9090   -0.1200   -1.6670 O   0  0  0  0  0  0  0  0  0  0  0  0
   -0.0730    0.1880    2.1570 C   0  0  0  0  0  0  0  0  0  0  0  0
    0.6910   -0.8450    2.6630 C   0  0  0  0  0  0  0  0  0  0  0  0
    0.9060   -0.9450    4.0240 C   0  0  0  0  0  0  0  0  0  0  0  0
    0.3520   -0.0060    4.8830 C   0  0  0  0  0  0  0  0  0  0  0  0
   -0.4190    1.0260    4.3730 C   0  0  0  0  0  0  0  0  0  0  0  0
   -0.6260    1.1250    3.0100 C   0  0  0  0  0  0  0  0  0  0  0  0
    0.5620   -0.1020    6.2220 O   0  0  0  0  0  0  0  0  0  0  0  0
    2.8520    0.2840   -4.2480 O   0  0  0  0  0  0  0  0  0  0  0  0
   -1.8740   -0.0870   -4.0060 O   0  0  0  0  0  0  0  0  0  0  0  0
  1  2  1  0
  1  6  2  0
  2  3  2  0
  2 19  1  0
  3  4  1  0
  4  5  2  0
  4 20  1  0
  5  6  1  0
  5  7  1  0
  6 10  1  0
  7  8  1  0
  7 11  2  0
  8  9  1  0
  9 10  1  0
  9 12  1  1
 12 13  1  0
 12 17  2  0
 13 14  2  0
 14 15  1  0
 15 16  2  0
 15 18  1  0
 16 17  1  0
M  END
>  <KEY>
NARINGENIN

>  <NAME>
Naringenin

>  <SOURCE>
rcsb-ccd:NAR

>  <SMILES>
O=C1C[C@@H](c2ccc(O)cc2)Oc2cc(O)cc(O)c21

>  <FORMULA>
C15H12O5

>  <MW>
272.26

>  <HEAVY_ATOMS>
20

>  <ROTATABLE_BONDS>
1

$$$$
