NEROLIDOL
     RDKit          3D

 16 15  0  0  1  0  0  0  0  0999 V2000
    4.2540    0.3210   -1.4960 C   0  0  0  0  0  0  0  0  0  0  0  0
    2.1810   -0.4630   -0.3440 C   0  0  0  0  0  0  0  0  0  0  0  0
    1.5470    0.8830   -0.7000 C   0  0  0  0  0  0  0  0  0  0  0  0
    0.0550    0.7170   -0.8310 C   0  0  0  0  0  0  0  0  0  0  0  0
   -0.7510    1.4190   -0.0730 C   0  0  0  0  0  0  0  0  0  0  0  0
   -0.1880    2.2910    1.0200 C   0  0  0  0  0  0  0  0  0  0  0  0
   -4.8970   -0.8670    0.0320 C   0  0  0  0  0  0  0  0  0  0  0  0
   -4.0690   -2.1210   -0.0800 C   0  0  0  0  0  0  0  0  0  0  0  0
    3.9850    0.5630    0.8940 O   0  0  0  0  0  0  0  0  0  0  0  0
    3.6950   -0.2950   -0.2120 C   0  0  2  0  0  0  0  0  0  0  0  0
    4.3320   -1.6420    0.0170 C   0  0  0  0  0  0  0  0  0  0  0  0
    5.0220   -1.8630    1.1090 C   0  0  0  0  0  0  0  0  0  0  0  0
   -2.2400    1.3550   -0.2940 C   0  0  0  0  0  0  0  0  0  0  0  0
   -2.8510    0.3160    0.6480 C   0  0  0  0  0  0  0  0  0  0  0  0
   -4.3400    0.2520    0.4260 C   0  0  0  0  0  0  0  0  0  0  0  0
   -6.3640   -0.8990   -0.3090 C   0  0  0  0  0  0  0  0  0  0  0  0
 10  1  1  6
  2 10  1  0
  3  2  1  0
  4  3  1  0
  4  5  2  0
  5 13  1  0
  5  6  1  0
  7  8  1  0
 10 11  1  0
 10  9  1  0
 11 12  2  0
 13 14  1  0
 14 15  1  0
 15  7  2  3
 16  7  1  0
M  END
>  <KEY>
NEROLIDOL

>  <NAME>
Nerolidol

>  <SOURCE>
rcsb-ccd:28U

>  <SMILES>
C=C[C@](C)(O)CC/C=C(\C)CCC=C(C)C

>  <FORMULA>
C15H26O

>  <MW>
222.37

>  <HEAVY_ATOMS>
16

>  <ROTATABLE_BONDS>
7

$$$$
