NOBILETIN
     RDKit          3D

 29 31  0  0  0  0  0  0  0  0999 V2000
    0.2012    0.2606   -0.1265 O   0  0  0  0  0  0  0  0  0  0  0  0
   -3.9425   -2.2054    0.3110 O   0  0  0  0  0  0  0  0  0  0  0  0
   -1.2196    2.5602   -0.3135 O   0  0  0  0  0  0  0  0  0  0  0  0
   -5.3162    0.1439    0.1163 O   0  0  0  0  0  0  0  0  0  0  0  0
   -3.9723    2.5274   -0.1957 O   0  0  0  0  0  0  0  0  0  0  0  0
   -1.6036   -3.3630    0.3330 O   0  0  0  0  0  0  0  0  0  0  0  0
    4.9011    1.8224    0.7188 O   0  0  0  0  0  0  0  0  0  0  0  0
    6.5093   -0.1658   -0.3687 O   0  0  0  0  0  0  0  0  0  0  0  0
   -1.8478   -1.0244    0.0972 C   0  0  0  0  0  0  0  0  0  0  0  0
   -1.1668    0.1814   -0.0604 C   0  0  0  0  0  0  0  0  0  0  0  0
   -3.2430   -1.0453    0.1574 C   0  0  0  0  0  0  0  0  0  0  0  0
   -1.8792    1.3767   -0.1594 C   0  0  0  0  0  0  0  0  0  0  0  0
    0.9364   -0.9107   -0.0242 C   0  0  0  0  0  0  0  0  0  0  0  0
   -3.9532    0.1519    0.0586 C   0  0  0  0  0  0  0  0  0  0  0  0
   -3.2730    1.3603   -0.0995 C   0  0  0  0  0  0  0  0  0  0  0  0
   -1.0717   -2.2699    0.1969 C   0  0  0  0  0  0  0  0  0  0  0  0
    2.3969   -0.7121   -0.1136 C   0  0  0  0  0  0  0  0  0  0  0  0
    0.3969   -2.1312    0.1228 C   0  0  0  0  0  0  0  0  0  0  0  0
    2.9736    0.4734    0.3489 C   0  0  0  0  0  0  0  0  0  0  0  0
    3.2085   -1.7088   -0.6610 C   0  0  0  0  0  0  0  0  0  0  0  0
    4.3534    0.6608    0.2649 C   0  0  0  0  0  0  0  0  0  0  0  0
    5.1606   -0.3364   -0.2822 C   0  0  0  0  0  0  0  0  0  0  0  0
    4.5881   -1.5212   -0.7454 C   0  0  0  0  0  0  0  0  0  0  0  0
   -4.3270   -2.8914   -0.8782 C   0  0  0  0  0  0  0  0  0  0  0  0
   -0.8548    3.2569    0.8755 C   0  0  0  0  0  0  0  0  0  0  0  0
   -5.9091    0.2755    1.4057 C   0  0  0  0  0  0  0  0  0  0  0  0
   -4.3563    2.9451   -1.5033 C   0  0  0  0  0  0  0  0  0  0  0  0
    5.0198    2.8923   -0.2169 C   0  0  0  0  0  0  0  0  0  0  0  0
    7.2904   -0.6034    0.7415 C   0  0  0  0  0  0  0  0  0  0  0  0
  1 10  1  0
  1 13  1  0
  2 11  1  0
  2 24  1  0
  3 12  1  0
  3 25  1  0
  4 14  1  0
  4 26  1  0
  5 15  1  0
  5 27  1  0
  6 16  2  0
  7 21  1  0
  7 28  1  0
  8 22  1  0
  8 29  1  0
  9 10  1  0
  9 11  2  0
  9 16  1  0
 10 12  2  0
 11 14  1  0
 12 15  1  0
 13 17  1  0
 13 18  2  0
 14 15  2  0
 16 18  1  0
 17 19  2  0
 17 20  1  0
 19 21  1  0
 20 23  2  0
 21 22  2  0
 22 23  1  0
M  END
>  <KEY>
NOBILETIN

>  <NAME>
Nobiletin

>  <SOURCE>
pubchem-3d:72344

>  <SMILES>
COc1ccc(-c2cc(=O)c3c(OC)c(OC)c(OC)c(OC)c3o2)cc1OC

>  <FORMULA>
C21H22O8

>  <MW>
402.40

>  <HEAVY_ATOMS>
29

>  <ROTATABLE_BONDS>
7

$$$$
