NOMILIN
     RDKit          3D

 37 42  0  0  1  0  0  0  0  0999 V2000
   -2.5510    2.3250    1.2530 O   0  0  0  0  0  0  0  0  0  0  0  0
   -4.4500    0.9430   -0.4980 O   0  0  0  0  0  0  0  0  0  0  0  0
   -0.2770    2.8780   -1.4030 O   0  0  0  0  0  0  0  0  0  0  0  0
    4.7680    0.5810    0.4030 O   0  0  0  0  0  0  0  0  0  0  0  0
    2.4640   -1.6930   -0.7080 O   0  0  0  0  0  0  0  0  0  0  0  0
   -4.5140    2.8860   -1.5400 O   0  0  0  0  0  0  0  0  0  0  0  0
   -5.0550   -3.1680   -0.7710 O   0  0  0  0  0  0  0  0  0  0  0  0
    5.8200   -1.3550    0.3770 O   0  0  0  0  0  0  0  0  0  0  0  0
    2.0700   -3.7270    0.0620 O   0  0  0  0  0  0  0  0  0  0  0  0
   -1.7700    1.4320    0.4290 C   0  0  1  0  0  0  0  0  0  0  0  0
   -0.2610    1.6170    0.6210 C   0  0  1  0  0  0  0  0  0  0  0  0
   -2.3100    0.0150    0.2940 C   0  0  1  0  0  0  0  0  0  0  0  0
    0.4000    0.2510    0.6780 C   0  0  1  0  0  0  0  0  0  0  0  0
   -2.6160    2.5540   -0.1630 C   0  0  1  0  0  0  0  0  0  0  0  0
    1.9140    0.2080    0.6340 C   0  0  2  0  0  0  0  0  0  0  0  0
   -1.6960   -0.9730    1.2630 C   0  0  0  0  0  0  0  0  0  0  0  0
   -0.2840   -0.5990    1.7300 C   0  0  0  0  0  0  0  0  0  0  0  0
    2.4880    1.1230   -0.4130 C   0  0  1  0  0  0  0  0  0  0  0  0
    0.3650    2.3910   -0.5110 C   0  0  0  0  0  0  0  0  0  0  0  0
   -3.8350    0.0460    0.4400 C   0  0  2  0  0  0  0  0  0  0  0  0
   -0.1090    2.4380    1.9120 C   0  0  0  0  0  0  0  0  0  0  0  0
    1.8830    2.5170   -0.4570 C   0  0  0  0  0  0  0  0  0  0  0  0
    2.4100   -1.1990    0.6610 C   0  0  2  0  0  0  0  0  0  0  0  0
   -2.0820   -0.4760   -1.1400 C   0  0  0  0  0  0  0  0  0  0  0  0
   -3.9400    2.1400   -0.7790 C   0  0  0  0  0  0  0  0  0  0  0  0
    3.9900    1.1180   -0.6550 C   0  0  0  0  0  0  0  0  0  0  0  0
    2.3790    0.7770    1.9550 C   0  0  0  0  0  0  0  0  0  0  0  0
   -4.3580   -1.3480    0.2060 C   0  0  0  0  0  0  0  0  0  0  0  0
    3.7490   -1.4500    1.3440 C   0  0  0  0  0  0  0  0  0  0  0  0
    4.4860    2.5560   -0.8910 C   0  0  0  0  0  0  0  0  0  0  0  0
    4.2730    0.3310   -1.9460 C   0  0  0  0  0  0  0  0  0  0  0  0
    4.8350   -0.7200    0.6610 C   0  0  0  0  0  0  0  0  0  0  0  0
   -4.6940   -2.2990    1.1960 C   0  0  0  0  0  0  0  0  0  0  0  0
   -4.5960   -1.9250   -0.9860 C   0  0  0  0  0  0  0  0  0  0  0  0
    2.2750   -3.0100   -0.8880 C   0  0  0  0  0  0  0  0  0  0  0  0
   -5.1160   -3.4010    0.5500 C   0  0  0  0  0  0  0  0  0  0  0  0
    2.3170   -3.5930   -2.2770 C   0  0  0  0  0  0  0  0  0  0  0  0
  2 20  1  0
  3 19  2  0
  4 32  1  0
  5 35  1  0
  6 25  2  0
  8 32  2  0
 10  1  1  1
 10 12  1  0
 11 13  1  0
 11 10  1  0
 12 16  1  0
 12 20  1  0
 13 17  1  1
 14 10  1  0
 14  1  1  1
 14 25  1  0
 15 23  1  0
 15 13  1  0
 17 16  1  0
 18 15  1  0
 19 11  1  0
 20 28  1  6
 11 21  1  1
 18 22  1  1
 22 19  1  0
 23  5  1  6
 12 24  1  6
 25  2  1  0
 26  4  1  0
 26 18  1  0
 15 27  1  1
 28 33  1  0
 28 34  2  0
 29 23  1  0
 30 26  1  0
 31 26  1  0
 32 29  1  0
 33 36  2  0
 34  7  1  0
 35  9  2  0
 36  7  1  0
 37 35  1  0
M  END
>  <KEY>
NOMILIN

>  <NAME>
Nomilin

>  <SOURCE>
rcsb-ccd:G3L

>  <SMILES>
CC(=O)O[C@H]1CC(=O)OC(C)(C)[C@@H]2CC(=O)[C@]3(C)[C@H](CC[C@@]4(C)[C@H](c5ccoc5)OC(=O)[C@H]5O[C@]543)[C@@]12C

>  <FORMULA>
C28H34O9

>  <MW>
514.57

>  <HEAVY_ATOMS>
37

>  <ROTATABLE_BONDS>
2

$$$$
