NOSCAPINE
     RDKit          3D

 30 34  0  0  1  0  0  0  0  0999 V2000
   -2.6060   -1.7010   -0.7680 C   0  0  0  0  0  0  0  0  0  0  0  0
   -0.3560   -1.3640   -0.9070 C   0  0  1  0  0  0  0  0  0  0  0  0
   -0.9840   -0.0640   -0.4720 C   0  0  0  0  0  0  0  0  0  0  0  0
   -0.4720    1.1750   -0.1690 C   0  0  0  0  0  0  0  0  0  0  0  0
   -1.3190    2.2040    0.2110 C   0  0  0  0  0  0  0  0  0  0  0  0
   -2.6850    1.9920    0.2870 C   0  0  0  0  0  0  0  0  0  0  0  0
   -2.8980    4.2640    0.9600 C   0  0  0  0  0  0  0  0  0  0  0  0
   -3.2180    0.7450   -0.0260 C   0  0  0  0  0  0  0  0  0  0  0  0
   -5.3200    0.7940   -1.1320 C   0  0  0  0  0  0  0  0  0  0  0  0
   -2.3620   -0.2980   -0.4010 C   0  0  0  0  0  0  0  0  0  0  0  0
    0.6180   -1.8620    0.1630 C   0  0  1  0  0  0  0  0  0  0  0  0
   -1.1140   -3.1360    1.2710 C   0  0  0  0  0  0  0  0  0  0  0  0
    0.8310   -2.3850    2.5060 C   0  0  0  0  0  0  0  0  0  0  0  0
    1.6040   -1.1130    2.8560 C   0  0  0  0  0  0  0  0  0  0  0  0
    2.1730   -0.4950    1.6040 C   0  0  0  0  0  0  0  0  0  0  0  0
    1.7110   -0.8420    0.3530 C   0  0  0  0  0  0  0  0  0  0  0  0
    2.2600   -0.2440   -0.7770 C   0  0  0  0  0  0  0  0  0  0  0  0
    2.5320   -1.5890   -2.7200 C   0  0  0  0  0  0  0  0  0  0  0  0
    3.2720    0.6970   -0.6510 C   0  0  0  0  0  0  0  0  0  0  0  0
    5.1380    1.8980   -0.9010 C   0  0  0  0  0  0  0  0  0  0  0  0
    3.7370    1.0420    0.6130 C   0  0  0  0  0  0  0  0  0  0  0  0
    3.1850    0.4450    1.7340 C   0  0  0  0  0  0  0  0  0  0  0  0
   -0.1100   -2.0740    1.4180 N   0  0  0  0  0  0  0  0  0  0  0  0
   -3.7000   -2.2290   -0.8080 O   0  0  0  0  0  0  0  0  0  0  0  0
   -1.4460   -2.3140   -1.0600 O   0  0  0  0  0  0  0  0  0  0  0  0
   -3.5100    3.0070    0.6610 O   0  0  0  0  0  0  0  0  0  0  0  0
   -4.5570    0.5360    0.0480 O   0  0  0  0  0  0  0  0  0  0  0  0
    1.8030   -0.5840   -2.0120 O   0  0  0  0  0  0  0  0  0  0  0  0
    3.9660    1.4150   -1.5830 O   0  0  0  0  0  0  0  0  0  0  0  0
    4.7230    1.9760    0.4760 O   0  0  0  0  0  0  0  0  0  0  0  0
  1 10  1  0
  2  3  1  0
  3  4  1  0
  4  5  2  0
  6  5  1  0
  6 26  1  0
  7 26  1  0
  8  6  2  0
  9 27  1  0
 10  3  2  0
 10  8  1  0
 11 16  1  0
 11  2  1  0
 12 23  1  0
 13 23  1  0
 13 14  1  0
 14 15  1  0
 15 16  1  0
 15 22  2  0
 16 17  2  0
 17 28  1  0
 17 19  1  0
 19 29  1  0
 21 19  2  0
 21 30  1  0
 22 21  1  0
 11 23  1  1
 24  1  2  0
 25  1  1  0
  2 25  1  1
 27  8  1  0
 28 18  1  0
 29 20  1  0
 30 20  1  0
M  END
>  <KEY>
NOSCAPINE

>  <NAME>
Noscapine

>  <SOURCE>
rcsb-ccd:08N

>  <SMILES>
COc1ccc2c(c1OC)C(=O)O[C@@H]2[C@H]1c2c(cc3c(c2OC)OCO3)CCN1C

>  <FORMULA>
C22H23NO7

>  <MW>
413.43

>  <HEAVY_ATOMS>
30

>  <ROTATABLE_BONDS>
4

$$$$
