OBACUNONE
     RDKit          3D

 33 38  0  0  1  0  0  0  0  0999 V2000
   -2.0062   -1.9315   -1.4169 O   0  0  0  0  0  0  0  0  0  0  0  0
   -4.0322   -1.2014    0.5392 O   0  0  0  0  0  0  0  0  0  0  0  0
    0.4478   -2.2775    1.5140 O   0  0  0  0  0  0  0  0  0  0  0  0
    5.2101    0.8795   -0.0419 O   0  0  0  0  0  0  0  0  0  0  0  0
   -3.8401   -3.3980    1.0752 O   0  0  0  0  0  0  0  0  0  0  0  0
   -5.6832    2.6454    1.1367 O   0  0  0  0  0  0  0  0  0  0  0  0
    5.5443    2.4167    1.6094 O   0  0  0  0  0  0  0  0  0  0  0  0
   -1.2963   -1.1565   -0.4152 C   0  0  1  0  0  0  0  0  0  0  0  0
    0.2581   -1.1530   -0.6325 C   0  0  1  0  0  0  0  0  0  0  0  0
   -2.0149    0.1527   -0.0758 C   0  0  1  0  0  0  0  0  0  0  0  0
    0.8025    0.3246   -0.6582 C   0  0  1  0  0  0  0  0  0  0  0  0
   -2.0396   -2.4382   -0.0857 C   0  0  1  0  0  0  0  0  0  0  0  0
    2.3840    0.5331   -0.7830 C   0  0  1  0  0  0  0  0  0  0  0  0
   -1.5357    1.2589   -1.0622 C   0  0  0  0  0  0  0  0  0  0  0  0
   -0.0992    1.1354   -1.6021 C   0  0  0  0  0  0  0  0  0  0  0  0
   -3.5713   -0.0669   -0.2538 C   0  0  2  0  0  0  0  0  0  0  0  0
    3.0909   -0.3827    0.3151 C   0  0  1  0  0  0  0  0  0  0  0  0
    1.0085   -1.7964    0.5308 C   0  0  0  0  0  0  0  0  0  0  0  0
    0.5761   -1.9688   -1.9126 C   0  0  0  0  0  0  0  0  0  0  0  0
    2.5177   -1.8085    0.4202 C   0  0  0  0  0  0  0  0  0  0  0  0
   -1.7378    0.5170    1.4075 C   0  0  0  0  0  0  0  0  0  0  0  0
   -3.3745   -2.3970    0.5449 C   0  0  0  0  0  0  0  0  0  0  0  0
    4.6639   -0.4070    0.3305 C   0  0  0  0  0  0  0  0  0  0  0  0
    2.8930    0.3185   -2.2167 C   0  0  0  0  0  0  0  0  0  0  0  0
    2.6647    2.0242   -0.4782 C   0  0  0  0  0  0  0  0  0  0  0  0
   -4.4367    1.1484    0.0392 C   0  0  0  0  0  0  0  0  0  0  0  0
    5.1979   -0.7754    1.7342 C   0  0  0  0  0  0  0  0  0  0  0  0
    5.2974   -1.4027   -0.6570 C   0  0  0  0  0  0  0  0  0  0  0  0
    3.6696    2.6150    0.1817 C   0  0  0  0  0  0  0  0  0  0  0  0
   -4.8482    2.1278   -0.8849 C   0  0  0  0  0  0  0  0  0  0  0  0
   -4.9637    1.4987    1.2524 C   0  0  0  0  0  0  0  0  0  0  0  0
    4.8610    1.9440    0.7125 C   0  0  0  0  0  0  0  0  0  0  0  0
   -5.6079    3.0218   -0.1669 C   0  0  0  0  0  0  0  0  0  0  0  0
  8  1  1  6
 12  1  1  6
  2 16  1  0
  2 22  1  0
  3 18  2  0
  4 23  1  0
  4 32  1  0
  5 22  2  0
  6 31  1  0
  6 33  1  0
  7 32  2  0
  8  9  1  0
  8 10  1  0
  8 12  1  0
  9 11  1  0
  9 18  1  0
  9 19  1  6
 10 14  1  0
 10 16  1  0
 10 21  1  1
 11 13  1  0
 11 15  1  6
 12 22  1  0
 13 17  1  0
 13 24  1  6
 13 25  1  0
 14 15  1  0
 16 26  1  1
 17 20  1  6
 17 23  1  0
 18 20  1  0
 23 27  1  0
 23 28  1  0
 25 29  2  0
 26 30  1  0
 26 31  2  0
 29 32  1  0
 30 33  2  0
M  END
>  <KEY>
OBACUNONE

>  <NAME>
Obacunone

>  <SOURCE>
pubchem-3d:119041

>  <SMILES>
CC1(C)OC(=O)C=C[C@]2(C)[C@H]3CC[C@@]4(C)[C@H](c5ccoc5)OC(=O)[C@H]5O[C@]54[C@]3(C)C(=O)C[C@@H]12

>  <FORMULA>
C26H30O7

>  <MW>
454.52

>  <HEAVY_ATOMS>
33

>  <ROTATABLE_BONDS>
1

$$$$
