OLEANOLIC_ACID
     RDKit          3D

 33 37  0  0  1  0  0  0  0  0999 V2000
    7.1335   -1.3511   -0.2535 O   0  0  0  0  0  0  0  0  0  0  0  0
   -4.0819    3.0780    0.6408 O   0  0  0  0  0  0  0  0  0  0  0  0
   -2.8903    1.7484    2.0579 O   0  0  0  0  0  0  0  0  0  0  0  0
    0.7096    0.7948   -0.1453 C   0  0  2  0  0  0  0  0  0  0  0  0
    1.4469   -0.4779    0.4212 C   0  0  1  0  0  0  0  0  0  0  0  0
    3.0086   -0.3454    0.7197 C   0  0  2  0  0  0  0  0  0  0  0  0
   -0.7571    0.3277   -0.7035 C   0  0  1  0  0  0  0  0  0  0  0  0
    3.6788    0.2478   -0.5749 C   0  0  1  0  0  0  0  0  0  0  0  0
    1.5632    1.4469   -1.2692 C   0  0  0  0  0  0  0  0  0  0  0  0
   -1.5180   -0.4300    0.4034 C   0  0  0  0  0  0  0  0  0  0  0  0
    3.0497    1.6076   -0.9406 C   0  0  0  0  0  0  0  0  0  0  0  0
    5.2514    0.2067   -0.6225 C   0  0  0  0  0  0  0  0  0  0  0  0
   -3.0500   -0.4738    0.4098 C   0  0  1  0  0  0  0  0  0  0  0  0
    0.6300   -1.1327    1.5587 C   0  0  0  0  0  0  0  0  0  0  0  0
   -1.5580    1.5576   -1.2286 C   0  0  0  0  0  0  0  0  0  0  0  0
    3.5857   -1.7754    0.9539 C   0  0  0  0  0  0  0  0  0  0  0  0
   -3.6999    0.8514   -0.0536 C   0  0  1  0  0  0  0  0  0  0  0  0
    0.5304    1.8720    0.9700 C   0  0  0  0  0  0  0  0  0  0  0  0
   -3.0684    1.3379   -1.3690 C   0  0  0  0  0  0  0  0  0  0  0  0
    5.7113   -1.2518   -0.3245 C   0  0  2  0  0  0  0  0  0  0  0  0
   -0.8580   -1.0741    1.3866 C   0  0  0  0  0  0  0  0  0  0  0  0
    3.3075    0.4892    1.9913 C   0  0  0  0  0  0  0  0  0  0  0  0
    5.1113   -1.8470    0.9456 C   0  0  0  0  0  0  0  0  0  0  0  0
   -0.6322   -0.6635   -1.9021 C   0  0  0  0  0  0  0  0  0  0  0  0
   -3.5694   -1.7094   -0.3609 C   0  0  0  0  0  0  0  0  0  0  0  0
   -5.2335    0.7234   -0.1898 C   0  0  0  0  0  0  0  0  0  0  0  0
   -5.1078   -1.8216   -0.4185 C   0  0  0  0  0  0  0  0  0  0  0  0
    5.7417    0.5534   -2.0566 C   0  0  0  0  0  0  0  0  0  0  0  0
    5.9312    1.2261    0.3135 C   0  0  0  0  0  0  0  0  0  0  0  0
   -5.6919   -0.5070   -0.9680 C   0  0  0  0  0  0  0  0  0  0  0  0
   -3.4959    1.9126    1.0093 C   0  0  0  0  0  0  0  0  0  0  0  0
   -5.4901   -2.9720   -1.3707 C   0  0  0  0  0  0  0  0  0  0  0  0
   -5.6886   -2.1489    0.9703 C   0  0  0  0  0  0  0  0  0  0  0  0
 20  1  1  1
  2 31  1  0
  3 31  2  0
  4  5  1  0
  4  7  1  0
  4  9  1  0
  4 18  1  1
  5  6  1  0
  5 14  1  1
  6  8  1  0
  6 16  1  0
  6 22  1  1
  7 10  1  0
  7 15  1  0
  7 24  1  6
  8 11  1  1
  8 12  1  0
  9 11  1  0
 10 13  1  0
 10 21  2  0
 12 20  1  0
 12 28  1  0
 12 29  1  0
 13 17  1  0
 13 25  1  6
 14 21  1  0
 15 19  1  0
 16 23  1  0
 17 19  1  0
 17 26  1  0
 17 31  1  1
 20 23  1  0
 25 27  1  0
 26 30  1  0
 27 30  1  0
 27 32  1  0
 27 33  1  0
M  END
>  <KEY>
OLEANOLIC_ACID

>  <NAME>
Oleanolic acid

>  <SOURCE>
pubchem-3d:10494

>  <SMILES>
CC1(C)CC[C@]2(C(=O)O)CC[C@]3(C)C(=CC[C@@H]4[C@@]5(C)CC[C@H](O)C(C)(C)[C@@H]5CC[C@]43C)[C@@H]2C1

>  <FORMULA>
C30H48O3

>  <MW>
456.71

>  <HEAVY_ATOMS>
33

>  <ROTATABLE_BONDS>
1

$$$$
