ORIDONIN
     RDKit          3D

 26 30  0  0  1  0  0  0  0  0999 V2000
   -0.2893   -0.4321   -2.0895 O   0  0  0  0  0  0  0  0  0  0  0  0
    0.9817   -2.3194   -1.5331 O   0  0  0  0  0  0  0  0  0  0  0  0
   -0.4956   -2.6167    0.8318 O   0  0  0  0  0  0  0  0  0  0  0  0
    3.0824   -0.5142   -1.9232 O   0  0  0  0  0  0  0  0  0  0  0  0
   -1.6412    3.2256   -0.3036 O   0  0  0  0  0  0  0  0  0  0  0  0
    1.9024   -1.8123    1.5281 O   0  0  0  0  0  0  0  0  0  0  0  0
   -1.1030    0.8201   -0.1046 C   0  0  1  0  0  0  0  0  0  0  0  0
    1.2458   -0.2227   -0.2446 C   0  0  1  0  0  0  0  0  0  0  0  0
    0.3932    0.9085    0.4358 C   0  0  1  0  0  0  0  0  0  0  0  0
   -1.6714   -0.5394    0.4520 C   0  0  2  0  0  0  0  0  0  0  0  0
    0.3047   -1.1814   -1.0064 C   0  0  1  0  0  0  0  0  0  0  0  0
   -0.8915   -1.7085   -0.1885 C   0  0  1  0  0  0  0  0  0  0  0  0
    2.3658    0.4238   -1.1253 C   0  0  1  0  0  0  0  0  0  0  0  0
   -3.2343   -0.7269    0.4419 C   0  0  0  0  0  0  0  0  0  0  0  0
   -1.9536    2.0196    0.3918 C   0  0  2  0  0  0  0  0  0  0  0  0
   -0.9929    0.7391   -1.6468 C   0  0  0  0  0  0  0  0  0  0  0  0
    1.0581    2.3050    0.3241 C   0  0  0  0  0  0  0  0  0  0  0  0
    3.2806    1.0785   -0.0789 C   0  0  1  0  0  0  0  0  0  0  0  0
    2.1388   -0.8386    0.8348 C   0  0  0  0  0  0  0  0  0  0  0  0
    2.5826    2.3037    0.5305 C   0  0  0  0  0  0  0  0  0  0  0  0
   -3.8971    0.5448    1.0162 C   0  0  0  0  0  0  0  0  0  0  0  0
   -3.4614    1.8080    0.2917 C   0  0  0  0  0  0  0  0  0  0  0  0
    3.3805   -0.0184    0.9515 C   0  0  0  0  0  0  0  0  0  0  0  0
   -3.6121   -1.9091    1.3686 C   0  0  0  0  0  0  0  0  0  0  0  0
   -3.8585   -1.0367   -0.9363 C   0  0  0  0  0  0  0  0  0  0  0  0
    4.3853   -0.3003    1.7818 C   0  0  0  0  0  0  0  0  0  0  0  0
  1 11  1  0
  1 16  1  0
 11  2  1  6
 12  3  1  1
 13  4  1  1
 15  5  1  6
  6 19  2  0
  7  9  1  0
  7 10  1  0
  7 15  1  0
  7 16  1  6
  8  9  1  0
  8 11  1  0
  8 13  1  0
  8 19  1  1
  9 17  1  6
 10 12  1  0
 10 14  1  6
 11 12  1  0
 13 18  1  0
 14 21  1  0
 14 24  1  0
 14 25  1  0
 15 22  1  0
 17 20  1  0
 18 20  1  1
 18 23  1  0
 19 23  1  0
 21 22  1  0
 23 26  2  0
M  END
>  <KEY>
ORIDONIN

>  <NAME>
Oridonin

>  <SOURCE>
pubchem-3d:5321010

>  <SMILES>
C=C1C(=O)[C@]23[C@H](O)[C@H]1CC[C@H]2[C@@]12CO[C@]3(O)[C@@H](O)[C@@H]1C(C)(C)CC[C@@H]2O

>  <FORMULA>
C20H28O6

>  <MW>
364.44

>  <HEAVY_ATOMS>
26

>  <ROTATABLE_BONDS>
0

$$$$
