ORIENTIN
     RDKit          3D

 32 35  0  0  1  0  0  0  0  0999 V2000
    3.7730    2.5590    0.1530 C   0  0  0  0  0  0  0  0  0  0  0  0
    2.8590    1.5240    0.1180 C   0  0  0  0  0  0  0  0  0  0  0  0
    3.3080    0.2000    0.1170 C   0  0  0  0  0  0  0  0  0  0  0  0
    2.3360   -0.9100    0.0800 C   0  0  0  0  0  0  0  0  0  0  0  0
    2.8030   -2.1880    0.0850 C   0  0  0  0  0  0  0  0  0  0  0  0
    0.4510   -2.9330    0.0080 C   0  0  0  0  0  0  0  0  0  0  0  0
   -2.2310   -2.2410   -0.0580 C   0  0  0  0  0  0  0  0  0  0  0  0
   -0.5260   -3.9350   -0.0300 C   0  0  0  0  0  0  0  0  0  0  0  0
   -2.1470    0.6070   -1.4220 C   0  0  1  0  0  0  0  0  0  0  0  0
   -3.2150    1.7410    1.0070 C   0  0  2  0  0  0  0  0  0  0  0  0
   -4.3400    1.8230    2.0410 C   0  0  0  0  0  0  0  0  0  0  0  0
    4.6780   -0.0700    0.1510 C   0  0  0  0  0  0  0  0  0  0  0  0
    5.5840    0.9680    0.1860 C   0  0  0  0  0  0  0  0  0  0  0  0
    5.1390    2.2820    0.1870 C   0  0  0  0  0  0  0  0  0  0  0  0
    1.8850   -3.2650    0.0490 C   0  0  0  0  0  0  0  0  0  0  0  0
    2.2680   -4.4240    0.0520 O   0  0  0  0  0  0  0  0  0  0  0  0
    0.0760   -1.5780    0.0120 C   0  0  0  0  0  0  0  0  0  0  0  0
    1.0260   -0.6200    0.0470 O   0  0  0  0  0  0  0  0  0  0  0  0
   -1.2690   -1.2440   -0.0220 C   0  0  0  0  0  0  0  0  0  0  0  0
   -1.8620   -3.5820   -0.0620 C   0  0  0  0  0  0  0  0  0  0  0  0
   -0.1650   -5.2430   -0.0340 O   0  0  0  0  0  0  0  0  0  0  0  0
   -3.5460   -1.9050   -0.0900 O   0  0  0  0  0  0  0  0  0  0  0  0
   -1.6850    0.2050   -0.0180 C   0  0  2  0  0  0  0  0  0  0  0  0
   -2.6240    2.0620   -1.3960 C   0  0  2  0  0  0  0  0  0  0  0  0
   -3.7380    2.2040   -0.3550 C   0  0  2  0  0  0  0  0  0  0  0  0
   -2.7580    0.3900    0.9060 O   0  0  0  0  0  0  0  0  0  0  0  0
   -3.8230    1.5020    3.3340 O   0  0  0  0  0  0  0  0  0  0  0  0
   -4.1410    3.5720   -0.2710 O   0  0  0  0  0  0  0  0  0  0  0  0
   -3.1250    2.4230   -2.6850 O   0  0  0  0  0  0  0  0  0  0  0  0
   -1.0580    0.4770   -2.3380 O   0  0  0  0  0  0  0  0  0  0  0  0
    3.3410    3.8480    0.1490 O   0  0  0  0  0  0  0  0  0  0  0  0
    6.0360    3.3020    0.2210 O   0  0  0  0  0  0  0  0  0  0  0  0
  1  2  1  0
  1 14  2  0
  2  3  2  0
  3  4  1  0
  3 12  1  0
  4 18  1  0
  5  4  2  0
  5 15  1  0
  6 17  1  0
  6  8  2  0
  7 22  1  0
  8 20  1  0
  9 24  1  0
  9 23  1  0
 10 11  1  1
 11 27  1  0
 13 12  2  0
 14 13  1  0
 15  6  1  0
 16 15  2  0
 17 19  2  0
 18 17  1  0
 23 19  1  6
 19  7  1  0
 20  7  2  0
 21  8  1  0
 23 26  1  0
 24 25  1  0
 25 28  1  1
 25 10  1  0
 26 10  1  0
 24 29  1  6
  9 30  1  6
 31  1  1  0
 32 14  1  0
M  END
>  <KEY>
ORIENTIN

>  <NAME>
Orientin

>  <SOURCE>
rcsb-ccd:USE

>  <SMILES>
O=c1cc(-c2ccc(O)c(O)c2)oc2c([C@@H]3O[C@H](CO)[C@@H](O)[C@H](O)[C@H]3O)c(O)cc(O)c12

>  <FORMULA>
C21H20O11

>  <MW>
448.38

>  <HEAVY_ATOMS>
32

>  <ROTATABLE_BONDS>
3

$$$$
