OSTHOLE
     RDKit          3D

 18 19  0  0  0  0  0  0  0  0999 V2000
   -1.2130    2.5640   -0.5530 C   0  0  0  0  0  0  0  0  0  0  0  0
    0.6030   -3.1480   -0.3180 C   0  0  0  0  0  0  0  0  0  0  0  0
    2.6170    1.1390    0.1810 C   0  0  0  0  0  0  0  0  0  0  0  0
    0.6900   -4.1870   -1.4070 C   0  0  0  0  0  0  0  0  0  0  0  0
    1.5490    0.3580    0.4040 O   0  0  0  0  0  0  0  0  0  0  0  0
   -3.1490   -0.3540    0.3930 O   0  0  0  0  0  0  0  0  0  0  0  0
    3.7310    0.6980    0.4040 O   0  0  0  0  0  0  0  0  0  0  0  0
   -0.8000   -0.0210    0.4100 C   0  0  0  0  0  0  0  0  0  0  0  0
   -0.5970   -1.4230    0.9240 C   0  0  0  0  0  0  0  0  0  0  0  0
    0.2930    0.7990    0.1730 C   0  0  0  0  0  0  0  0  0  0  0  0
    0.0870    2.1030   -0.3120 C   0  0  0  0  0  0  0  0  0  0  0  0
   -2.0790    0.4490    0.1620 C   0  0  0  0  0  0  0  0  0  0  0  0
   -0.4460   -2.3680   -0.2390 C   0  0  0  0  0  0  0  0  0  0  0  0
   -2.2770    1.7440   -0.3150 C   0  0  0  0  0  0  0  0  0  0  0  0
    1.2480    2.9600   -0.5580 C   0  0  0  0  0  0  0  0  0  0  0  0
    2.4840    2.4550   -0.3050 C   0  0  0  0  0  0  0  0  0  0  0  0
    1.7230   -3.0070    0.6800 C   0  0  0  0  0  0  0  0  0  0  0  0
   -4.4410    0.1910    0.1170 C   0  0  0  0  0  0  0  0  0  0  0  0
  1 14  2  0
  2 17  1  0
  2 13  2  3
  3 16  1  0
  3  5  1  0
  4  2  1  0
  5 10  1  0
  6 18  1  0
  7  3  2  0
  8 12  2  0
  9  8  1  0
 10 11  2  0
 10  8  1  0
 11  1  1  0
 12 14  1  0
 12  6  1  0
 13  9  1  0
 15 11  1  0
 16 15  2  0
M  END
>  <KEY>
OSTHOLE

>  <NAME>
Osthole

>  <SOURCE>
rcsb-ccd:A0O

>  <SMILES>
COc1ccc2ccc(=O)oc2c1CC=C(C)C

>  <FORMULA>
C15H16O3

>  <MW>
244.29

>  <HEAVY_ATOMS>
18

>  <ROTATABLE_BONDS>
3

$$$$
