PACLITAXEL
     RDKit          3D

 62 68  0  0  1  0  0  0  0  0999 V2000
   -1.4460    2.7560    1.6630 O   0  0  0  0  0  0  0  0  0  0  0  0
   -0.4380    1.7280    1.7150 C   0  0  1  0  0  0  0  0  0  0  0  0
   -1.0200    0.5890    2.5810 C   0  0  1  0  0  0  0  0  0  0  0  0
   -2.2750    0.2110    1.9050 O   0  0  0  0  0  0  0  0  0  0  0  0
   -3.4250    0.8400    2.2170 C   0  0  0  0  0  0  0  0  0  0  0  0
   -3.4280    1.7190    3.0560 O   0  0  0  0  0  0  0  0  0  0  0  0
   -4.6820    0.4610    1.5400 C   0  0  0  0  0  0  0  0  0  0  0  0
   -5.8750    1.1110    1.8610 C   0  0  0  0  0  0  0  0  0  0  0  0
   -7.0450    0.7530    1.2240 C   0  0  0  0  0  0  0  0  0  0  0  0
   -7.0380   -0.2480    0.2700 C   0  0  0  0  0  0  0  0  0  0  0  0
   -5.8600   -0.8960   -0.0530 C   0  0  0  0  0  0  0  0  0  0  0  0
   -4.6810   -0.5440    0.5710 C   0  0  0  0  0  0  0  0  0  0  0  0
   -0.1070   -0.6310    2.6580 C   0  0  2  0  0  0  0  0  0  0  0  0
   -0.7070   -1.8450    1.9970 C   0  0  2  0  0  0  0  0  0  0  0  0
   -0.5420   -1.7830    0.5430 O   0  0  0  0  0  0  0  0  0  0  0  0
   -0.8940   -2.8300   -0.2180 C   0  0  0  0  0  0  0  0  0  0  0  0
   -1.4430   -3.7830    0.2820 O   0  0  0  0  0  0  0  0  0  0  0  0
   -0.6050   -2.8180   -1.6970 C   0  0  0  0  0  0  0  0  0  0  0  0
   -2.1260   -2.2350    2.4130 C   0  0  0  0  0  0  0  0  0  0  0  0
   -1.6230   -3.2810    3.2520 O   0  0  0  0  0  0  0  0  0  0  0  0
   -0.3960   -3.2400    2.5220 C   0  0  2  0  0  0  0  0  0  0  0  0
    0.8290   -3.2930    3.4350 C   0  0  0  0  0  0  0  0  0  0  0  0
    0.6530   -2.2200    4.5030 C   0  0  2  0  0  0  0  0  0  0  0  0
   -0.5840   -2.3480    5.1870 O   0  0  0  0  0  0  0  0  0  0  0  0
    0.7410   -0.8270    3.8700 C   0  0  2  0  0  0  0  0  0  0  0  0
    0.2510    0.0430    5.0160 C   0  0  0  0  0  0  0  0  0  0  0  0
    2.2080   -0.5250    3.6970 C   0  0  0  0  0  0  0  0  0  0  0  0
    3.0200   -1.4390    3.7870 O   0  0  0  0  0  0  0  0  0  0  0  0
    2.6950    0.8840    3.4240 C   0  0  2  0  0  0  0  0  0  0  0  0
    2.6720    1.7170    4.5990 O   0  0  0  0  0  0  0  0  0  0  0  0
    3.7290    1.7400    5.4270 C   0  0  0  0  0  0  0  0  0  0  0  0
    4.7000    1.0630    5.1850 O   0  0  0  0  0  0  0  0  0  0  0  0
    3.7040    2.6110    6.6560 C   0  0  0  0  0  0  0  0  0  0  0  0
    1.8890    1.3580    2.2500 C   0  0  0  0  0  0  0  0  0  0  0  0
    2.1410    0.8300    1.0550 C   0  0  0  0  0  0  0  0  0  0  0  0
    1.2630    1.2060   -0.1150 C   0  0  1  0  0  0  0  0  0  0  0  0
    1.4080    0.1770   -1.1450 O   0  0  0  0  0  0  0  0  0  0  0  0
    2.3700    0.2890   -2.0750 C   0  0  0  0  0  0  0  0  0  0  0  0
    3.1160    1.2400   -2.0610 O   0  0  0  0  0  0  0  0  0  0  0  0
    2.5190   -0.7690   -3.1360 C   0  0  2  0  0  0  0  0  0  0  0  0
    3.6040   -0.4270   -4.0010 O   0  0  0  0  0  0  0  0  0  0  0  0
    1.2270   -0.8610   -3.9510 C   0  0  1  0  0  0  0  0  0  0  0  0
    0.9570    0.4310   -4.5850 N   0  0  0  0  0  0  0  0  0  0  0  0
   -0.3130    0.8110   -4.8250 C   0  0  0  0  0  0  0  0  0  0  0  0
   -1.2340    0.0820   -4.5150 O   0  0  0  0  0  0  0  0  0  0  0  0
   -0.5860    2.1150   -5.4650 C   0  0  0  0  0  0  0  0  0  0  0  0
   -1.9000    2.5120   -5.7150 C   0  0  0  0  0  0  0  0  0  0  0  0
   -2.1480    3.7310   -6.3120 C   0  0  0  0  0  0  0  0  0  0  0  0
   -1.0970    4.5590   -6.6640 C   0  0  0  0  0  0  0  0  0  0  0  0
    0.2080    4.1710   -6.4200 C   0  0  0  0  0  0  0  0  0  0  0  0
    0.4690    2.9580   -5.8180 C   0  0  0  0  0  0  0  0  0  0  0  0
    1.3770   -1.9200   -5.0120 C   0  0  0  0  0  0  0  0  0  0  0  0
    0.5230   -3.0080   -5.0290 C   0  0  0  0  0  0  0  0  0  0  0  0
    0.6610   -3.9790   -6.0020 C   0  0  0  0  0  0  0  0  0  0  0  0
    1.6510   -3.8630   -6.9600 C   0  0  0  0  0  0  0  0  0  0  0  0
    2.5040   -2.7760   -6.9440 C   0  0  0  0  0  0  0  0  0  0  0  0
    2.3640   -1.8020   -5.9730 C   0  0  0  0  0  0  0  0  0  0  0  0
   -0.2030    1.2770    0.2870 C   0  0  0  0  0  0  0  0  0  0  0  0
    3.3010   -0.1220    0.8370 C   0  0  0  0  0  0  0  0  0  0  0  0
    0.8010    2.3750    2.3110 C   0  0  0  0  0  0  0  0  0  0  0  0
    1.1900    3.6100    1.4770 C   0  0  0  0  0  0  0  0  0  0  0  0
    0.4730    2.8950    3.7060 C   0  0  0  0  0  0  0  0  0  0  0  0
  2  1  1  6
  2  3  1  0
  2 58  1  0
  2 60  1  0
  3  4  1  6
 13  3  1  1
  4  5  1  0
  5  6  2  0
  5  7  1  0
  7  8  2  0
  7 12  1  0
  8  9  1  0
  9 10  2  0
 10 11  1  0
 11 12  2  0
 13 14  1  0
 13 25  1  0
 14 15  1  6
 14 19  1  0
 14 21  1  0
 15 16  1  0
 16 17  2  0
 16 18  1  0
 19 20  1  0
 20 21  1  0
 21 22  1  1
 22 23  1  0
 23 24  1  6
 23 25  1  0
 25 26  1  1
 25 27  1  0
 27 28  2  0
 27 29  1  0
 29 30  1  1
 29 34  1  0
 30 31  1  0
 31 32  2  0
 31 33  1  0
 34 35  2  0
 34 60  1  0
 35 36  1  0
 35 59  1  0
 36 37  1  6
 36 58  1  0
 37 38  1  0
 38 39  2  0
 38 40  1  0
 40 41  1  6
 40 42  1  0
 42 43  1  6
 42 52  1  0
 43 44  1  0
 44 45  2  0
 44 46  1  0
 46 47  2  0
 46 51  1  0
 47 48  1  0
 48 49  2  0
 49 50  1  0
 50 51  2  0
 52 53  2  0
 52 57  1  0
 53 54  1  0
 54 55  2  0
 55 56  1  0
 56 57  2  0
 60 61  1  0
 60 62  1  0
M  END
>  <KEY>
PACLITAXEL

>  <NAME>
Paclitaxel

>  <SOURCE>
rcsb-ccd:TA1

>  <SMILES>
CC(=O)O[C@H]1C(=O)[C@@]2(C)[C@H]([C@H](OC(=O)c3ccccc3)[C@]3(O)C[C@H](OC(=O)[C@H](O)[C@@H](NC(=O)c4ccccc4)c4ccccc4)C(C)=C1C3(C)C)[C@]1(OC(C)=O)CO[C@@H]1C[C@@H]2O

>  <FORMULA>
C47H51NO14

>  <MW>
853.92

>  <HEAVY_ATOMS>
62

>  <ROTATABLE_BONDS>
10

$$$$
