PARTHENOLIDE
     RDKit          3D

 18 20  0  0  1  0  0  0  0  0999 V2000
    1.0114    1.3598   -1.2217 O   0  0  0  0  0  0  0  0  0  0  0  0
   -1.6540    0.7984    1.2746 O   0  0  0  0  0  0  0  0  0  0  0  0
   -3.9352    0.9084    1.0198 O   0  0  0  0  0  0  0  0  0  0  0  0
    1.6267    1.8878   -0.0466 C   0  0  1  0  0  0  0  0  0  0  0  0
    0.1230    1.6025   -0.1251 C   0  0  2  0  0  0  0  0  0  0  0  0
   -0.5248    0.3784    0.4710 C   0  0  2  0  0  0  0  0  0  0  0  0
   -1.0816   -0.6252   -0.5508 C   0  0  1  0  0  0  0  0  0  0  0  0
    2.6218    0.9995    0.6539 C   0  0  0  0  0  0  0  0  0  0  0  0
    2.0533    3.3065   -0.2257 C   0  0  0  0  0  0  0  0  0  0  0  0
   -0.9384   -2.1021   -0.0986 C   0  0  0  0  0  0  0  0  0  0  0  0
    3.2553   -0.1248   -0.1835 C   0  0  0  0  0  0  0  0  0  0  0  0
   -2.5140   -0.2089   -0.5758 C   0  0  0  0  0  0  0  0  0  0  0  0
    0.4068   -2.7601   -0.4774 C   0  0  0  0  0  0  0  0  0  0  0  0
   -2.8332    0.5591    0.6382 C   0  0  0  0  0  0  0  0  0  0  0  0
    2.2600   -1.1458   -0.6517 C   0  0  0  0  0  0  0  0  0  0  0  0
    1.6104   -2.0531    0.1015 C   0  0  0  0  0  0  0  0  0  0  0  0
   -3.4145   -0.4183   -1.5392 C   0  0  0  0  0  0  0  0  0  0  0  0
    1.9270   -2.3623    1.5373 C   0  0  0  0  0  0  0  0  0  0  0  0
  1  4  1  0
  5  1  1  6
  6  2  1  1
  2 14  1  0
  3 14  2  0
  4  5  1  0
  4  8  1  0
  4  9  1  6
  5  6  1  0
  6  7  1  0
  7 10  1  1
  7 12  1  0
  8 11  1  0
 10 13  1  0
 11 15  1  0
 12 14  1  0
 12 17  2  0
 13 16  1  0
 15 16  2  0
 16 18  1  0
M  END
>  <KEY>
PARTHENOLIDE

>  <NAME>
Parthenolide

>  <SOURCE>
pubchem-3d:6473881

>  <SMILES>
C=C1C(=O)O[C@H]2[C@H]1CC/C(C)=C/CC[C@@]1(C)O[C@@H]21

>  <FORMULA>
C15H20O3

>  <MW>
248.32

>  <HEAVY_ATOMS>
18

>  <ROTATABLE_BONDS>
0

$$$$
