PERILLYL_ALCOHOL
     RDKit          3D

 11 11  0  0  1  0  0  0  0  0999 V2000
    3.8000   -0.6153    0.7175 O   0  0  0  0  0  0  0  0  0  0  0  0
   -1.0693   -0.1070    0.2971 C   0  0  1  0  0  0  0  0  0  0  0  0
   -0.3808   -1.0334   -0.7118 C   0  0  0  0  0  0  0  0  0  0  0  0
   -0.4754    1.3088    0.2076 C   0  0  0  0  0  0  0  0  0  0  0  0
    1.1286   -1.1055   -0.4599 C   0  0  0  0  0  0  0  0  0  0  0  0
    1.7601    0.2343   -0.1784 C   0  0  0  0  0  0  0  0  0  0  0  0
    1.0224    1.3209    0.1063 C   0  0  0  0  0  0  0  0  0  0  0  0
   -2.5530   -0.0788    0.0852 C   0  0  0  0  0  0  0  0  0  0  0  0
    3.2584    0.2839   -0.2316 C   0  0  0  0  0  0  0  0  0  0  0  0
   -3.3938   -0.5628    1.2291 C   0  0  0  0  0  0  0  0  0  0  0  0
   -3.0973    0.3549   -1.0612 C   0  0  0  0  0  0  0  0  0  0  0  0
  1  9  1  0
  2  3  1  0
  2  4  1  0
  2  8  1  6
  3  5  1  0
  4  7  1  0
  5  6  1  0
  6  7  2  0
  6  9  1  0
  8 10  1  0
  8 11  2  0
M  END
>  <KEY>
PERILLYL_ALCOHOL

>  <NAME>
Perillyl alcohol

>  <SOURCE>
pubchem-3d:369312

>  <SMILES>
C=C(C)[C@@H]1CC=C(CO)CC1

>  <FORMULA>
C10H16O

>  <MW>
152.24

>  <HEAVY_ATOMS>
11

>  <ROTATABLE_BONDS>
2

$$$$
