PHENETHYL_ISOTHIOCYANATE
     RDKit          3D

 11 11  0  0  0  0  0  0  0  0999 V2000
   -4.3898    1.0410    0.7223 S   0  0  0  0  0  0  0  0  0  0  0  0
   -2.0209    0.1353   -0.3836 N   0  0  0  0  0  0  0  0  0  0  0  0
   -0.2878   -1.5773   -0.6618 C   0  0  0  0  0  0  0  0  0  0  0  0
    0.8375   -0.6672   -0.3016 C   0  0  0  0  0  0  0  0  0  0  0  0
   -1.6126   -1.2134    0.0185 C   0  0  0  0  0  0  0  0  0  0  0  0
    1.0821    0.4751   -1.0640 C   0  0  0  0  0  0  0  0  0  0  0  0
    1.6453   -0.9579    0.7980 C   0  0  0  0  0  0  0  0  0  0  0  0
    2.1343    1.3266   -0.7271 C   0  0  0  0  0  0  0  0  0  0  0  0
    2.6975   -0.1063    1.1349 C   0  0  0  0  0  0  0  0  0  0  0  0
    2.9419    1.0359    0.3723 C   0  0  0  0  0  0  0  0  0  0  0  0
   -3.0274    0.5083    0.0921 C   0  0  0  0  0  0  0  0  0  0  0  0
  1 11  2  0
  2  5  1  0
  2 11  2  0
  3  4  1  0
  3  5  1  0
  4  6  2  0
  4  7  1  0
  6  8  1  0
  7  9  2  0
  8 10  2  0
  9 10  1  0
M  END
>  <KEY>
PHENETHYL_ISOTHIOCYANATE

>  <NAME>
Phenethyl isothiocyanate

>  <SOURCE>
pubchem-3d:16741

>  <SMILES>
S=C=NCCc1ccccc1

>  <FORMULA>
C9H9NS

>  <MW>
163.24

>  <HEAVY_ATOMS>
11

>  <ROTATABLE_BONDS>
3

$$$$
