PHLORETIN
     RDKit          3D

 20 21  0  0  0  0  0  0  0  0999 V2000
    3.3140    1.8130   -0.0000 C   0  0  0  0  0  0  0  0  0  0  0  0
    4.5350    1.1490   -0.0060 C   0  0  0  0  0  0  0  0  0  0  0  0
    4.5800   -0.2400   -0.0150 C   0  0  0  0  0  0  0  0  0  0  0  0
    3.4090   -0.9740   -0.0160 C   0  0  0  0  0  0  0  0  0  0  0  0
    2.1680   -0.3100   -0.0100 C   0  0  0  0  0  0  0  0  0  0  0  0
    2.1320    1.0970   -0.0020 C   0  0  0  0  0  0  0  0  0  0  0  0
    0.9240   -1.0770   -0.0120 C   0  0  0  0  0  0  0  0  0  0  0  0
   -0.4030   -0.3620   -0.0050 C   0  0  0  0  0  0  0  0  0  0  0  0
   -1.5360   -1.3890   -0.0090 C   0  0  0  0  0  0  0  0  0  0  0  0
    0.9420    1.7470    0.0100 O   0  0  0  0  0  0  0  0  0  0  0  0
    0.9590   -2.2910   -0.0200 O   0  0  0  0  0  0  0  0  0  0  0  0
   -2.8620   -0.6740   -0.0020 C   0  0  0  0  0  0  0  0  0  0  0  0
   -3.4720   -0.3390   -1.1960 C   0  0  0  0  0  0  0  0  0  0  0  0
   -4.6880    0.3170   -1.1920 C   0  0  0  0  0  0  0  0  0  0  0  0
   -5.2970    0.6400    0.0120 C   0  0  0  0  0  0  0  0  0  0  0  0
   -4.6830    0.3020    1.2090 C   0  0  0  0  0  0  0  0  0  0  0  0
   -3.4700   -0.3590    1.2000 C   0  0  0  0  0  0  0  0  0  0  0  0
   -6.4930    1.2850    0.0180 O   0  0  0  0  0  0  0  0  0  0  0  0
    5.6890    1.8610   -0.0050 O   0  0  0  0  0  0  0  0  0  0  0  0
    3.4560   -2.3290   -0.0250 O   0  0  0  0  0  0  0  0  0  0  0  0
  1  6  1  0
  2  1  2  0
  2 19  1  0
  3  2  1  0
  3  4  2  0
  4 20  1  0
  5  4  1  0
  5  7  1  0
  6  5  2  0
  6 10  1  0
  7  8  1  0
  7 11  2  0
  8  9  1  0
  9 12  1  0
 12 13  1  0
 12 17  2  0
 13 14  2  0
 14 15  1  0
 15 16  2  0
 15 18  1  0
 16 17  1  0
M  END
>  <KEY>
PHLORETIN

>  <NAME>
Phloretin

>  <SOURCE>
rcsb-ccd:G50

>  <SMILES>
O=C(CCc1ccc(O)cc1)c1c(O)cc(O)cc1O

>  <FORMULA>
C15H14O5

>  <MW>
274.27

>  <HEAVY_ATOMS>
20

>  <ROTATABLE_BONDS>
4

$$$$
