PHYSCION
     RDKit          3D

 21 23  0  0  0  0  0  0  0  0999 V2000
   -3.2684   -2.1116   -0.1057 O   0  0  0  0  0  0  0  0  0  0  0  0
   -0.9435   -2.1000   -1.1810 O   0  0  0  0  0  0  0  0  0  0  0  0
    0.4882    2.2764    1.5313 O   0  0  0  0  0  0  0  0  0  0  0  0
    1.3346   -2.2286   -2.3452 O   0  0  0  0  0  0  0  0  0  0  0  0
    4.5220    1.1024   -1.2558 O   0  0  0  0  0  0  0  0  0  0  0  0
   -1.1858    0.6895    1.0858 C   0  0  0  0  0  0  0  0  0  0  0  0
   -1.5600   -0.4539    0.3765 C   0  0  0  0  0  0  0  0  0  0  0  0
    0.7292   -0.5127   -0.7364 C   0  0  0  0  0  0  0  0  0  0  0  0
    1.1033    0.6307   -0.0272 C   0  0  0  0  0  0  0  0  0  0  0  0
   -0.6162   -1.0968   -0.5604 C   0  0  0  0  0  0  0  0  0  0  0  0
    0.1594    1.2735    0.9098 C   0  0  0  0  0  0  0  0  0  0  0  0
   -2.0898    1.2891    1.9708 C   0  0  0  0  0  0  0  0  0  0  0  0
   -2.8383   -0.9976    0.5524 C   0  0  0  0  0  0  0  0  0  0  0  0
   -3.3626    0.7443    2.1430 C   0  0  0  0  0  0  0  0  0  0  0  0
    1.6331   -1.1123   -1.6216 C   0  0  0  0  0  0  0  0  0  0  0  0
    2.3814    1.1743   -0.2032 C   0  0  0  0  0  0  0  0  0  0  0  0
   -3.7360   -0.3966    1.4353 C   0  0  0  0  0  0  0  0  0  0  0  0
    3.2792    0.5737   -1.0862 C   0  0  0  0  0  0  0  0  0  0  0  0
    2.9059   -0.5671   -1.7940 C   0  0  0  0  0  0  0  0  0  0  0  0
   -4.3256    1.3839    3.0854 C   0  0  0  0  0  0  0  0  0  0  0  0
    5.3899    0.4392   -2.1736 C   0  0  0  0  0  0  0  0  0  0  0  0
  1 13  1  0
  2 10  2  0
  3 11  2  0
  4 15  1  0
  5 18  1  0
  5 21  1  0
  6  7  1  0
  6 11  1  0
  6 12  2  0
  7 10  1  0
  7 13  2  0
  8  9  1  0
  8 10  1  0
  8 15  2  0
  9 11  1  0
  9 16  2  0
 12 14  1  0
 13 17  1  0
 14 17  2  0
 14 20  1  0
 15 19  1  0
 16 18  1  0
 18 19  2  0
M  END
>  <KEY>
PHYSCION

>  <NAME>
Physcion

>  <SOURCE>
pubchem-3d:10639

>  <SMILES>
COc1cc(O)c2c(c1)C(=O)c1cc(C)cc(O)c1C2=O

>  <FORMULA>
C16H12O5

>  <MW>
284.27

>  <HEAVY_ATOMS>
21

>  <ROTATABLE_BONDS>
1

$$$$
