PICEATANNOL
     RDKit          3D

 18 19  0  0  0  0  0  0  0  0999 V2000
    3.1215   -1.0925   -2.2714 C   0  0  0  0  0  0  0  0  0  0  0  0
    4.2200   -0.2557   -2.1304 C   0  0  0  0  0  0  0  0  0  0  0  0
    4.1651    0.8300   -1.2687 C   0  0  0  0  0  0  0  0  0  0  0  0
    3.0130    1.0852   -0.5450 C   0  0  0  0  0  0  0  0  0  0  0  0
    1.9047    0.2460   -0.6833 C   0  0  0  0  0  0  0  0  0  0  0  0
    1.9646   -0.8460   -1.5509 C   0  0  0  0  0  0  0  0  0  0  0  0
    0.6753    0.5127    0.0853 C   0  0  0  0  0  0  0  0  0  0  0  0
   -0.3891   -0.2946   -0.0488 C   0  0  0  0  0  0  0  0  0  0  0  0
   -1.6176   -0.0278    0.7193 C   0  0  0  0  0  0  0  0  0  0  0  0
   -2.7268   -0.8671    0.5814 C   0  0  0  0  0  0  0  0  0  0  0  0
   -3.8770   -0.6132    1.3045 C   0  0  0  0  0  0  0  0  0  0  0  0
   -3.9288    0.4788    2.1682 C   0  0  0  0  0  0  0  0  0  0  0  0
   -2.8285    1.3123    2.3059 C   0  0  0  0  0  0  0  0  0  0  0  0
   -1.6758    1.0610    1.5930 C   0  0  0  0  0  0  0  0  0  0  0  0
   -5.0605    0.7277    2.8789 O   0  0  0  0  0  0  0  0  0  0  0  0
    5.2449    1.6449   -1.1345 O   0  0  0  0  0  0  0  0  0  0  0  0
    3.1800   -2.1516   -3.1209 O   0  0  0  0  0  0  0  0  0  0  0  0
   -4.9575   -1.4273    1.1713 O   0  0  0  0  0  0  0  0  0  0  0  0
  1  6  2  0
  1  2  1  0
  1 17  1  0
  2  3  2  0
  3 16  1  0
  3  4  1  0
  4  5  2  0
  5  7  1  0
  5  6  1  0
  7  8  2  0
  8  9  1  0
  9 10  2  0
  9 14  1  0
 10 11  1  0
 11 18  1  0
 11 12  2  0
 12 15  1  0
 12 13  1  0
 13 14  2  0
M  END
>  <KEY>
PICEATANNOL

>  <NAME>
Piceatannol

>  <SOURCE>
rcsb-ccd:PIT

>  <SMILES>
Oc1cc(O)cc(/C=C/c2ccc(O)c(O)c2)c1

>  <FORMULA>
C14H12O4

>  <MW>
244.25

>  <HEAVY_ATOMS>
18

>  <ROTATABLE_BONDS>
2

$$$$
