PIPERINE
     RDKit          3D

 21 23  0  0  0  0  0  0  0  0999 V2000
   -1.3580   -1.0430    0.0140 C   0  0  0  0  0  0  0  0  0  0  0  0
   -2.6660   -0.3760   -0.0270 C   0  0  0  0  0  0  0  0  0  0  0  0
   -2.7420    1.0130   -0.1800 C   0  0  0  0  0  0  0  0  0  0  0  0
   -3.9700    1.6350   -0.2180 C   0  0  0  0  0  0  0  0  0  0  0  0
   -5.1360    0.8890   -0.1060 C   0  0  0  0  0  0  0  0  0  0  0  0
   -5.0690   -0.4970    0.0460 C   0  0  0  0  0  0  0  0  0  0  0  0
   -3.8420   -1.1290    0.0800 C   0  0  0  0  0  0  0  0  0  0  0  0
   -6.4480    1.2620   -0.1150 O   0  0  0  0  0  0  0  0  0  0  0  0
   -7.1690    0.1480    0.4440 C   0  0  0  0  0  0  0  0  0  0  0  0
   -6.3400   -0.9880    0.1330 O   0  0  0  0  0  0  0  0  0  0  0  0
   -0.2230   -0.3130   -0.0960 C   0  0  0  0  0  0  0  0  0  0  0  0
    1.0340   -0.9530   -0.0570 C   0  0  0  0  0  0  0  0  0  0  0  0
    2.1720   -0.2210   -0.1680 C   0  0  0  0  0  0  0  0  0  0  0  0
    3.4330   -0.8640   -0.1280 C   0  0  0  0  0  0  0  0  0  0  0  0
    3.5010   -2.0590    0.0950 O   0  0  0  0  0  0  0  0  0  0  0  0
    4.5580   -0.1530   -0.3380 N   0  0  0  0  0  0  0  0  0  0  0  0
    4.5030    1.3070   -0.4930 C   0  0  0  0  0  0  0  0  0  0  0  0
    5.4720    1.9470    0.5060 C   0  0  0  0  0  0  0  0  0  0  0  0
    6.8670    1.3460    0.3140 C   0  0  0  0  0  0  0  0  0  0  0  0
    6.8180   -0.1590    0.5840 C   0  0  0  0  0  0  0  0  0  0  0  0
    5.8650   -0.8220   -0.4080 C   0  0  0  0  0  0  0  0  0  0  0  0
  1  2  1  0
  1 11  2  0
  2  3  1  0
  3  4  2  0
  5  8  1  0
  5  4  1  0
  6  5  2  0
  7  6  1  0
  7  2  2  0
  9  8  1  0
 10  6  1  0
 10  9  1  0
 12 11  1  0
 12 13  2  0
 14 13  1  0
 14 16  1  0
 15 14  2  0
 16 17  1  0
 17 18  1  0
 19 18  1  0
 20 19  1  0
 21 20  1  0
 21 16  1  0
M  END
>  <KEY>
PIPERINE

>  <NAME>
Piperine

>  <SOURCE>
rcsb-ccd:AYR

>  <SMILES>
O=C(/C=C/C=C/c1ccc2c(c1)OCO2)N1CCCCC1

>  <FORMULA>
C17H19NO3

>  <MW>
285.34

>  <HEAVY_ATOMS>
21

>  <ROTATABLE_BONDS>
3

$$$$
