PLUMERICIN
     RDKit          3D

 21 24  0  0  1  0  0  0  0  0999 V2000
   -1.1278    1.4230    0.4721 O   0  0  0  0  0  0  0  0  0  0  0  0
   -1.9126   -1.8449   -0.3337 O   0  0  0  0  0  0  0  0  0  0  0  0
    0.6348    2.1425   -0.9367 O   0  0  0  0  0  0  0  0  0  0  0  0
   -4.1157   -1.7921   -0.9889 O   0  0  0  0  0  0  0  0  0  0  0  0
    4.0772   -0.8935   -0.2666 O   0  0  0  0  0  0  0  0  0  0  0  0
    4.3503    1.2050    0.6723 O   0  0  0  0  0  0  0  0  0  0  0  0
   -0.0533   -0.2958   -0.8029 C   0  0  2  0  0  0  0  0  0  0  0  0
   -0.9847   -0.9257    0.2420 C   0  0  1  0  0  0  0  0  0  0  0  0
   -1.7699    0.2090    0.8556 C   0  0  2  0  0  0  0  0  0  0  0  0
    1.3868   -0.6630   -0.3854 C   0  0  2  0  0  0  0  0  0  0  0  0
   -0.4127    1.1947   -0.7559 C   0  0  1  0  0  0  0  0  0  0  0  0
   -0.0749   -1.6127    1.2009 C   0  0  0  0  0  0  0  0  0  0  0  0
    1.2085   -1.4463    0.8786 C   0  0  0  0  0  0  0  0  0  0  0  0
   -3.1000    0.0350    0.2156 C   0  0  0  0  0  0  0  0  0  0  0  0
    2.2741    0.5244   -0.2464 C   0  0  0  0  0  0  0  0  0  0  0  0
   -3.1509   -1.2820   -0.4483 C   0  0  0  0  0  0  0  0  0  0  0  0
    1.8800    1.7679   -0.5315 C   0  0  0  0  0  0  0  0  0  0  0  0
   -4.1217    0.8931    0.1812 C   0  0  0  0  0  0  0  0  0  0  0  0
    3.6833    0.3471    0.1165 C   0  0  0  0  0  0  0  0  0  0  0  0
   -4.1117    2.2340    0.8386 C   0  0  0  0  0  0  0  0  0  0  0  0
    5.4407   -1.2196    0.0226 C   0  0  0  0  0  0  0  0  0  0  0  0
  9  1  1  6
 11  1  1  1
  8  2  1  6
  2 16  1  0
  3 11  1  0
  3 17  1  0
  4 16  2  0
  5 19  1  0
  5 21  1  0
  6 19  2  0
  7  8  1  0
  7 10  1  1
  7 11  1  0
  8  9  1  0
  8 12  1  0
  9 14  1  0
 10 13  1  1
 10 15  1  0
 12 13  2  0
 14 16  1  0
 14 18  2  0
 15 17  2  0
 15 19  1  0
 18 20  1  0
M  END
>  <KEY>
PLUMERICIN

>  <NAME>
Plumericin

>  <SOURCE>
pubchem-3d:5281545

>  <SMILES>
C/C=C1/C(=O)O[C@]23C=C[C@@H]4C(C(=O)OC)=CO[C@H](O[C@@H]12)[C@@H]43

>  <FORMULA>
C15H14O6

>  <MW>
290.27

>  <HEAVY_ATOMS>
21

>  <ROTATABLE_BONDS>
1

$$$$
