PLUMBAGIN
     RDKit          3D

 14 15  0  0  0  0  0  0  0  0999 V2000
   -0.1561   -2.1277   -1.5913 O   0  0  0  0  0  0  0  0  0  0  0  0
   -0.4478   -1.2678   -0.7828 C   0  0  0  0  0  0  0  0  0  0  0  0
    0.5313   -0.2229   -0.4294 C   0  0  0  0  0  0  0  0  0  0  0  0
    1.7998   -0.2014   -1.0124 C   0  0  0  0  0  0  0  0  0  0  0  0
    2.1507   -1.1490   -1.9162 O   0  0  0  0  0  0  0  0  0  0  0  0
    2.7044    0.8001   -0.6578 C   0  0  0  0  0  0  0  0  0  0  0  0
    2.3504    1.7649    0.2608 C   0  0  0  0  0  0  0  0  0  0  0  0
    1.0924    1.7541    0.8471 C   0  0  0  0  0  0  0  0  0  0  0  0
    0.1771    0.7657    0.5076 C   0  0  0  0  0  0  0  0  0  0  0  0
   -1.1687    0.7358    1.1188 C   0  0  0  0  0  0  0  0  0  0  0  0
   -1.4889    1.5818    1.9298 O   0  0  0  0  0  0  0  0  0  0  0  0
   -2.1200   -0.3255    0.7398 C   0  0  0  0  0  0  0  0  0  0  0  0
   -3.4904   -0.3530    1.3643 C   0  0  0  0  0  0  0  0  0  0  0  0
   -1.7831   -1.2629   -0.1563 C   0  0  0  0  0  0  0  0  0  0  0  0
  1  2  2  0
  2  3  1  0
  2 14  1  0
  3  9  1  0
  4  6  1  0
  4  3  2  0
  5  4  1  0
  6  7  2  0
  7  8  1  0
  9  8  2  0
  9 10  1  0
 10 12  1  0
 10 11  2  0
 12 13  1  0
 14 12  2  0
M  END
>  <KEY>
PLUMBAGIN

>  <NAME>
Plumbagin

>  <SOURCE>
rcsb-ccd:90R

>  <SMILES>
CC1=CC(=O)c2c(O)cccc2C1=O

>  <FORMULA>
C11H8O3

>  <MW>
188.18

>  <HEAVY_ATOMS>
14

>  <ROTATABLE_BONDS>
0

$$$$
