PODOPHYLLOTOXIN
     RDKit          3D

 30 34  0  0  1  0  0  0  0  0999 V2000
   -2.6140   -1.7870    2.1160 O   0  0  0  0  0  0  0  0  0  0  0  0
   -2.8080   -0.8840    1.3360 C   0  0  0  0  0  0  0  0  0  0  0  0
   -3.5820    0.2160    1.5640 O   0  0  0  0  0  0  0  0  0  0  0  0
   -2.2260   -0.7540   -0.0390 C   0  0  1  0  0  0  0  0  0  0  0  0
   -2.1940    0.7930   -0.2460 C   0  0  2  0  0  0  0  0  0  0  0  0
   -3.5350    1.1370    0.4200 C   0  0  0  0  0  0  0  0  0  0  0  0
   -0.8000   -1.2320   -0.2240 C   0  0  1  0  0  0  0  0  0  0  0  0
   -0.3240   -0.7660   -1.5890 C   0  0  0  0  0  0  0  0  0  0  0  0
   -0.9260    0.2470   -2.2760 C   0  0  0  0  0  0  0  0  0  0  0  0
   -2.1320    1.0030   -1.7470 C   0  0  2  0  0  0  0  0  0  0  0  0
   -1.9940    2.3970   -2.0340 O   0  0  0  0  0  0  0  0  0  0  0  0
   -0.4620    0.6370   -3.5340 C   0  0  0  0  0  0  0  0  0  0  0  0
    0.6420   -0.0170   -4.0510 C   0  0  0  0  0  0  0  0  0  0  0  0
    1.2740   -1.0410   -3.3290 C   0  0  0  0  0  0  0  0  0  0  0  0
    0.8050   -1.4260   -2.0850 C   0  0  0  0  0  0  0  0  0  0  0  0
    1.2910    0.1530   -5.2250 O   0  0  0  0  0  0  0  0  0  0  0  0
    2.0940   -1.0330   -5.3980 C   0  0  0  0  0  0  0  0  0  0  0  0
    2.3190   -1.5040   -4.0530 O   0  0  0  0  0  0  0  0  0  0  0  0
    0.0760   -0.6440    0.8500 C   0  0  0  0  0  0  0  0  0  0  0  0
    0.3120   -1.3530    2.0130 C   0  0  0  0  0  0  0  0  0  0  0  0
    1.1190   -0.8160    3.0040 C   0  0  0  0  0  0  0  0  0  0  0  0
    1.3510   -1.5150    4.1470 O   0  0  0  0  0  0  0  0  0  0  0  0
    0.6360   -2.7470    4.0300 C   0  0  0  0  0  0  0  0  0  0  0  0
    1.6870    0.4400    2.8300 C   0  0  0  0  0  0  0  0  0  0  0  0
    2.4800    0.9710    3.8000 O   0  0  0  0  0  0  0  0  0  0  0  0
    1.6250    1.7180    4.6680 C   0  0  0  0  0  0  0  0  0  0  0  0
    1.4520    1.1480    1.6570 C   0  0  0  0  0  0  0  0  0  0  0  0
    0.6440    0.6030    0.6710 C   0  0  0  0  0  0  0  0  0  0  0  0
    2.0090    2.3750    1.4800 O   0  0  0  0  0  0  0  0  0  0  0  0
    1.5810    2.8420    0.1980 C   0  0  0  0  0  0  0  0  0  0  0  0
  1  2  2  0
  2  3  1  0
  4  2  1  1
  3  6  1  0
  4  5  1  0
  4  7  1  0
  5  6  1  6
  5 10  1  0
  7  8  1  0
  7 19  1  1
  8  9  2  0
  8 15  1  0
  9 10  1  0
  9 12  1  0
 10 11  1  1
 12 13  2  0
 13 14  1  0
 13 16  1  0
 14 15  2  0
 14 18  1  0
 16 17  1  0
 17 18  1  0
 19 20  2  0
 19 28  1  0
 20 21  1  0
 21 22  1  0
 21 24  2  0
 22 23  1  0
 24 25  1  0
 24 27  1  0
 25 26  1  0
 27 28  2  0
 27 29  1  0
 29 30  1  0
M  END
>  <KEY>
PODOPHYLLOTOXIN

>  <NAME>
Podophyllotoxin

>  <SOURCE>
rcsb-ccd:POD

>  <SMILES>
COc1cc([C@@H]2c3cc4c(cc3[C@H](O)[C@H]3COC(=O)[C@H]23)OCO4)cc(OC)c1OC

>  <FORMULA>
C22H22O8

>  <MW>
414.41

>  <HEAVY_ATOMS>
30

>  <ROTATABLE_BONDS>
4

$$$$
