PROCYANIDIN_B2
     RDKit          3D

 42 47  0  0  1  0  0  0  0  0999 V2000
   -3.3226   -0.4447   -1.1163 O   0  0  0  0  0  0  0  0  0  0  0  0
    2.0156   -0.1091    0.5140 O   0  0  0  0  0  0  0  0  0  0  0  0
   -0.9564    1.1853   -1.5935 O   0  0  0  0  0  0  0  0  0  0  0  0
    4.4888   -1.4153    1.2012 O   0  0  0  0  0  0  0  0  0  0  0  0
   -1.9995   -2.4987    1.3499 O   0  0  0  0  0  0  0  0  0  0  0  0
    1.3766   -2.4811    4.6900 O   0  0  0  0  0  0  0  0  0  0  0  0
    0.4806   -3.4562   -1.2304 O   0  0  0  0  0  0  0  0  0  0  0  0
   -3.7106   -4.7334   -3.0736 O   0  0  0  0  0  0  0  0  0  0  0  0
   -4.2134    4.1346    2.6001 O   0  0  0  0  0  0  0  0  0  0  0  0
   -5.2801    5.3570    0.3438 O   0  0  0  0  0  0  0  0  0  0  0  0
    4.9391    0.6436   -3.4522 O   0  0  0  0  0  0  0  0  0  0  0  0
    6.1759    3.0853   -2.9713 O   0  0  0  0  0  0  0  0  0  0  0  0
   -0.4776   -0.8751   -0.4282 C   0  0  1  0  0  0  0  0  0  0  0  0
   -1.1781    0.4972   -0.3563 C   0  0  2  0  0  0  0  0  0  0  0  0
    0.0351   -1.2973    0.9438 C   0  0  0  0  0  0  0  0  0  0  0  0
   -2.6839    0.3382   -0.0985 C   0  0  1  0  0  0  0  0  0  0  0  0
   -1.3618   -1.9047   -1.1069 C   0  0  0  0  0  0  0  0  0  0  0  0
    1.2951   -0.8849    1.3851 C   0  0  0  0  0  0  0  0  0  0  0  0
    1.7748   -1.2922    2.6365 C   0  0  0  0  0  0  0  0  0  0  0  0
    3.9855   -0.3276    1.9779 C   0  0  1  0  0  0  0  0  0  0  0  0
    3.1242    0.5911    1.1014 C   0  0  1  0  0  0  0  0  0  0  0  0
    3.1375   -0.8782    3.1227 C   0  0  0  0  0  0  0  0  0  0  0  0
   -2.7046   -1.6337   -1.4033 C   0  0  0  0  0  0  0  0  0  0  0  0
   -0.7653   -2.0935    1.7615 C   0  0  0  0  0  0  0  0  0  0  0  0
   -3.3787    1.6828    0.0232 C   0  0  0  0  0  0  0  0  0  0  0  0
   -0.8254   -3.1480   -1.4808 C   0  0  0  0  0  0  0  0  0  0  0  0
    0.9571   -2.0838    3.4543 C   0  0  0  0  0  0  0  0  0  0  0  0
   -0.3066   -2.4831    3.0178 C   0  0  0  0  0  0  0  0  0  0  0  0
    3.9405    1.2563    0.0089 C   0  0  0  0  0  0  0  0  0  0  0  0
   -3.4872   -2.5801   -2.0713 C   0  0  0  0  0  0  0  0  0  0  0  0
   -1.6132   -4.0968   -2.1334 C   0  0  0  0  0  0  0  0  0  0  0  0
   -3.4808    2.3020    1.2676 C   0  0  0  0  0  0  0  0  0  0  0  0
   -2.9433   -3.8119   -2.4297 C   0  0  0  0  0  0  0  0  0  0  0  0
   -3.9134    2.2941   -1.1095 C   0  0  0  0  0  0  0  0  0  0  0  0
    4.0694    0.6413   -1.2354 C   0  0  0  0  0  0  0  0  0  0  0  0
    4.5607    2.4811    0.2516 C   0  0  0  0  0  0  0  0  0  0  0  0
   -4.1196    3.5370    1.3797 C   0  0  0  0  0  0  0  0  0  0  0  0
   -4.5521    3.5289   -0.9975 C   0  0  0  0  0  0  0  0  0  0  0  0
   -4.6552    4.1505    0.2470 C   0  0  0  0  0  0  0  0  0  0  0  0
    4.8203    1.2525   -2.2396 C   0  0  0  0  0  0  0  0  0  0  0  0
    5.3114    3.0923   -0.7524 C   0  0  0  0  0  0  0  0  0  0  0  0
    5.4412    2.4782   -1.9980 C   0  0  0  0  0  0  0  0  0  0  0  0
  1 16  1  0
  1 23  1  0
  2 18  1  0
  2 21  1  0
 14  3  1  6
 20  4  1  6
  5 24  1  0
  6 27  1  0
  7 26  1  0
  8 33  1  0
  9 37  1  0
 10 39  1  0
 11 40  1  0
 12 42  1  0
 13 14  1  0
 13 15  1  1
 13 17  1  0
 14 16  1  0
 15 18  1  0
 15 24  2  0
 16 25  1  6
 17 23  1  0
 17 26  2  0
 18 19  2  0
 19 22  1  0
 19 27  1  0
 20 21  1  0
 20 22  1  0
 21 29  1  6
 23 30  2  0
 24 28  1  0
 25 32  2  0
 25 34  1  0
 26 31  1  0
 27 28  2  0
 29 35  2  0
 29 36  1  0
 30 33  1  0
 31 33  2  0
 32 37  1  0
 34 38  2  0
 35 40  1  0
 36 41  2  0
 37 39  2  0
 38 39  1  0
 40 42  2  0
 41 42  1  0
M  END
>  <KEY>
PROCYANIDIN_B2

>  <NAME>
Procyanidin B2

>  <SOURCE>
pubchem-3d:122738

>  <SMILES>
Oc1cc(O)c2c(c1)O[C@H](c1ccc(O)c(O)c1)[C@H](O)[C@H]2c1c(O)cc(O)c2c1O[C@H](c1ccc(O)c(O)c1)[C@H](O)C2

>  <FORMULA>
C30H26O12

>  <MW>
578.53

>  <HEAVY_ATOMS>
42

>  <ROTATABLE_BONDS>
3

$$$$
