PSORALEN
     RDKit          3D

 14 16  0  0  0  0  0  0  0  0999 V2000
    2.3663   -1.0595   -1.9205 O   0  0  0  0  0  0  0  0  0  0  0  0
   -1.9830   -0.9430    0.1961 O   0  0  0  0  0  0  0  0  0  0  0  0
   -4.0108   -0.8006    1.2515 O   0  0  0  0  0  0  0  0  0  0  0  0
    1.8738    0.5698   -0.4345 C   0  0  0  0  0  0  0  0  0  0  0  0
   -0.2699    0.7193    0.6809 C   0  0  0  0  0  0  0  0  0  0  0  0
    1.4047   -0.5641   -1.0914 C   0  0  0  0  0  0  0  0  0  0  0  0
   -0.6840   -0.4210   -0.0072 C   0  0  0  0  0  0  0  0  0  0  0  0
    1.0213    1.2295    0.4725 C   0  0  0  0  0  0  0  0  0  0  0  0
    0.1324   -1.1021   -0.9146 C   0  0  0  0  0  0  0  0  0  0  0  0
    3.2006    0.7645   -0.9018 C   0  0  0  0  0  0  0  0  0  0  0  0
   -1.1965    1.3543    1.6050 C   0  0  0  0  0  0  0  0  0  0  0  0
    3.4490   -0.2483   -1.7987 C   0  0  0  0  0  0  0  0  0  0  0  0
   -2.4199    0.8521    1.7882 C   0  0  0  0  0  0  0  0  0  0  0  0
   -2.8839   -0.3509    1.0745 C   0  0  0  0  0  0  0  0  0  0  0  0
  1  6  1  0
  1 12  1  0
  2  7  1  0
  2 14  1  0
  3 14  2  0
  4  6  1  0
  4  8  2  0
  4 10  1  0
  5  7  2  0
  5  8  1  0
  5 11  1  0
  6  9  2  0
  7  9  1  0
 10 12  2  0
 11 13  2  0
 13 14  1  0
M  END
>  <KEY>
PSORALEN

>  <NAME>
Psoralen

>  <SOURCE>
pubchem-3d:6199

>  <SMILES>
O=c1ccc2cc3ccoc3cc2o1

>  <FORMULA>
C11H6O3

>  <MW>
186.17

>  <HEAVY_ATOMS>
14

>  <ROTATABLE_BONDS>
0

$$$$
