PTEROSTILBENE
     RDKit          3D

 19 20  0  0  0  0  0  0  0  0999 V2000
    4.4962   -1.6249   -3.3412 C   0  0  0  0  0  0  0  0  0  0  0  0
    3.1556   -1.8595   -2.9081 O   0  0  0  0  0  0  0  0  0  0  0  0
    2.6392   -0.9917   -1.9995 C   0  0  0  0  0  0  0  0  0  0  0  0
    1.3474   -1.1656   -1.5329 C   0  0  0  0  0  0  0  0  0  0  0  0
    3.4096    0.0654   -1.5353 C   0  0  0  0  0  0  0  0  0  0  0  0
    2.8889    0.9554   -0.6076 C   0  0  0  0  0  0  0  0  0  0  0  0
    3.6486    1.9887   -0.1568 O   0  0  0  0  0  0  0  0  0  0  0  0
    4.9724    2.0967   -0.6826 C   0  0  0  0  0  0  0  0  0  0  0  0
    1.5959    0.7925   -0.1386 C   0  0  0  0  0  0  0  0  0  0  0  0
    0.8177   -0.2724   -0.5985 C   0  0  0  0  0  0  0  0  0  0  0  0
   -0.5570   -0.4536   -0.0989 C   0  0  0  0  0  0  0  0  0  0  0  0
   -1.0638    0.4068    0.7995 C   0  0  0  0  0  0  0  0  0  0  0  0
   -2.4375    0.2255    1.2987 C   0  0  0  0  0  0  0  0  0  0  0  0
   -2.9664    1.1198    2.2349 C   0  0  0  0  0  0  0  0  0  0  0  0
   -4.2531    0.9465    2.6983 C   0  0  0  0  0  0  0  0  0  0  0  0
   -5.0227   -0.1135    2.2382 C   0  0  0  0  0  0  0  0  0  0  0  0
   -6.2881   -0.2838    2.7022 O   0  0  0  0  0  0  0  0  0  0  0  0
   -4.5015   -1.0051    1.3091 C   0  0  0  0  0  0  0  0  0  0  0  0
   -3.2184   -0.8365    0.8356 C   0  0  0  0  0  0  0  0  0  0  0  0
  2  1  1  0
  3  2  1  0
  3  5  2  0
  4  3  1  0
  6  5  1  0
  6  7  1  0
  7  8  1  0
  9  6  2  0
 10  4  2  0
 10  9  1  0
 11 10  1  0
 12 11  2  0
 13 12  1  0
 14 13  1  0
 15 14  2  0
 16 18  2  0
 16 15  1  0
 17 16  1  0
 18 19  1  0
 19 13  2  0
M  END
>  <KEY>
PTEROSTILBENE

>  <NAME>
Pterostilbene

>  <SOURCE>
rcsb-ccd:3RL

>  <SMILES>
COc1cc(/C=C/c2ccc(O)cc2)cc(OC)c1

>  <FORMULA>
C16H16O3

>  <MW>
256.30

>  <HEAVY_ATOMS>
19

>  <ROTATABLE_BONDS>
4

$$$$
