QUERCETIN
     RDKit          3D

 22 24  0  0  0  0  0  0  0  0999 V2000
    0.6370   -0.0120    4.4810 C   0  0  0  0  0  0  0  0  0  0  0  0
   -0.5190    0.1190    3.7370 C   0  0  0  0  0  0  0  0  0  0  0  0
   -0.4510    0.0550    2.3390 C   0  0  0  0  0  0  0  0  0  0  0  0
    0.7840   -0.1420    1.6990 C   0  0  0  0  0  0  0  0  0  0  0  0
    1.9350   -0.2670    2.4630 C   0  0  0  0  0  0  0  0  0  0  0  0
    1.8590   -0.2080    3.8450 C   0  0  0  0  0  0  0  0  0  0  0  0
   -1.6580    0.1920    1.5090 C   0  0  0  0  0  0  0  0  0  0  0  0
   -1.4960    0.1140    0.1010 C   0  0  0  0  0  0  0  0  0  0  0  0
   -0.2520   -0.0790   -0.4190 C   0  0  0  0  0  0  0  0  0  0  0  0
   -0.1000   -0.1580   -1.8840 C   0  0  0  0  0  0  0  0  0  0  0  0
   -0.9560   -0.9690   -2.6340 C   0  0  0  0  0  0  0  0  0  0  0  0
   -0.8130   -1.0410   -4.0030 C   0  0  0  0  0  0  0  0  0  0  0  0
    0.1800   -0.3100   -4.6390 C   0  0  0  0  0  0  0  0  0  0  0  0
    1.0370    0.4990   -3.8970 C   0  0  0  0  0  0  0  0  0  0  0  0
    0.8960    0.5810   -2.5250 C   0  0  0  0  0  0  0  0  0  0  0  0
    0.8410   -0.2020    0.3520 O   0  0  0  0  0  0  0  0  0  0  0  0
   -2.7570    0.3650    2.0120 O   0  0  0  0  0  0  0  0  0  0  0  0
    2.0100    1.2140   -4.5250 O   0  0  0  0  0  0  0  0  0  0  0  0
    0.3180   -0.3860   -5.9890 O   0  0  0  0  0  0  0  0  0  0  0  0
   -2.5740    0.2320   -0.7200 O   0  0  0  0  0  0  0  0  0  0  0  0
    2.9890   -0.3360    4.5860 O   0  0  0  0  0  0  0  0  0  0  0  0
   -1.7110    0.3110    4.3550 O   0  0  0  0  0  0  0  0  0  0  0  0
  1  2  1  0
  1  6  2  0
  2  3  2  0
  2 22  1  0
  3  4  1  0
  3  7  1  0
  4  5  2  0
  4 16  1  0
  5  6  1  0
  6 21  1  0
  7  8  1  0
  7 17  2  0
  8  9  2  0
  8 20  1  0
  9 10  1  0
  9 16  1  0
 10 11  1  0
 10 15  2  0
 11 12  2  0
 12 13  1  0
 13 14  2  0
 13 19  1  0
 14 15  1  0
 14 18  1  0
M  END
>  <KEY>
QUERCETIN

>  <NAME>
Quercetin

>  <SOURCE>
rcsb-ccd:QUE

>  <SMILES>
O=c1c(O)c(-c2ccc(O)c(O)c2)oc2cc(O)cc(O)c12

>  <FORMULA>
C15H10O7

>  <MW>
302.24

>  <HEAVY_ATOMS>
22

>  <ROTATABLE_BONDS>
1

$$$$
