RESVERATROL
     RDKit          3D

 17 18  0  0  0  0  0  0  0  0999 V2000
    1.2470   -0.0150   -3.5120 C   0  0  0  0  0  0  0  0  0  0  0  0
    0.1720   -0.0160   -4.3890 C   0  0  0  0  0  0  0  0  0  0  0  0
   -1.1270   -0.0150   -3.9020 C   0  0  0  0  0  0  0  0  0  0  0  0
   -1.3560   -0.0140   -2.5360 C   0  0  0  0  0  0  0  0  0  0  0  0
   -0.2770   -0.0130   -1.6490 C   0  0  0  0  0  0  0  0  0  0  0  0
    1.0280   -0.0080   -2.1450 C   0  0  0  0  0  0  0  0  0  0  0  0
   -0.5150   -0.0120   -0.1950 C   0  0  0  0  0  0  0  0  0  0  0  0
    0.5230   -0.0120    0.6550 C   0  0  0  0  0  0  0  0  0  0  0  0
    0.2840   -0.0110    2.1090 C   0  0  0  0  0  0  0  0  0  0  0  0
    1.3640   -0.0100    2.9970 C   0  0  0  0  0  0  0  0  0  0  0  0
    1.1360   -0.0090    4.3560 C   0  0  0  0  0  0  0  0  0  0  0  0
   -0.1640   -0.0070    4.8440 C   0  0  0  0  0  0  0  0  0  0  0  0
   -1.2400   -0.0130    3.9660 C   0  0  0  0  0  0  0  0  0  0  0  0
   -1.0220   -0.0090    2.6050 C   0  0  0  0  0  0  0  0  0  0  0  0
   -0.3830   -0.0050    6.1850 O   0  0  0  0  0  0  0  0  0  0  0  0
   -2.1760   -0.0150   -4.7660 O   0  0  0  0  0  0  0  0  0  0  0  0
    2.5170   -0.0160   -3.9960 O   0  0  0  0  0  0  0  0  0  0  0  0
  1  2  1  0
  1  6  2  0
  1 17  1  0
  2  3  2  0
  3  4  1  0
  3 16  1  0
  4  5  2  0
  5  6  1  0
  5  7  1  0
  7  8  2  0
  8  9  1  0
  9 10  1  0
  9 14  2  0
 10 11  2  0
 11 12  1  0
 12 13  2  0
 12 15  1  0
 13 14  1  0
M  END
>  <KEY>
RESVERATROL

>  <NAME>
Resveratrol

>  <SOURCE>
rcsb-ccd:STL

>  <SMILES>
Oc1ccc(/C=C/c2cc(O)cc(O)c2)cc1

>  <FORMULA>
C14H12O3

>  <MW>
228.25

>  <HEAVY_ATOMS>
17

>  <ROTATABLE_BONDS>
2

$$$$
