RHEIN
     RDKit          3D

 21 23  0  0  0  0  0  0  0  0999 V2000
   -4.6150    1.7240    0.1530 O   0  0  0  0  0  0  0  0  0  0  0  0
    0.2380    2.8100   -0.5110 O   0  0  0  0  0  0  0  0  0  0  0  0
    1.4030   -2.3090   -0.4630 O   0  0  0  0  0  0  0  0  0  0  0  0
   -5.3250   -0.3770    0.2420 O   0  0  0  0  0  0  0  0  0  0  0  0
    3.8390   -1.8820    0.1660 O   0  0  0  0  0  0  0  0  0  0  0  0
   -1.0010   -2.9890    0.0120 O   0  0  0  0  0  0  0  0  0  0  0  0
    4.2130    1.7380    0.3150 C   0  0  0  0  0  0  0  0  0  0  0  0
    4.5240    0.3940    0.3280 C   0  0  0  0  0  0  0  0  0  0  0  0
    2.9040    2.1570    0.1280 C   0  0  0  0  0  0  0  0  0  0  0  0
   -2.6200   -1.2520    0.0830 C   0  0  0  0  0  0  0  0  0  0  0  0
   -1.9140    1.0600   -0.0350 C   0  0  0  0  0  0  0  0  0  0  0  0
   -4.3420    0.5400    0.1590 C   0  0  0  0  0  0  0  0  0  0  0  0
   -2.9300    0.1060    0.0750 C   0  0  0  0  0  0  0  0  0  0  0  0
    3.5270   -0.5620    0.1530 C   0  0  0  0  0  0  0  0  0  0  0  0
   -1.3000   -1.6660    0.0050 C   0  0  0  0  0  0  0  0  0  0  0  0
    0.4940    1.6500   -0.2540 C   0  0  0  0  0  0  0  0  0  0  0  0
    1.1310   -1.1490   -0.2220 C   0  0  0  0  0  0  0  0  0  0  0  0
    1.8950    1.2190   -0.0540 C   0  0  0  0  0  0  0  0  0  0  0  0
   -0.5910    0.6520   -0.1380 C   0  0  0  0  0  0  0  0  0  0  0  0
    2.2050   -0.1550   -0.0360 C   0  0  0  0  0  0  0  0  0  0  0  0
   -0.2790   -0.7200   -0.1120 C   0  0  0  0  0  0  0  0  0  0  0  0
  1 12  2  0
  3 17  2  0
  5 14  1  0
  6 15  1  0
  7  9  1  0
  8  7  2  0
 10 13  2  0
 12  4  1  0
 13 11  1  0
 13 12  1  0
 14  8  1  0
 14 20  2  0
 15 10  1  0
 15 21  2  0
 16  2  2  0
 17 20  1  0
 17 21  1  0
 18  9  2  0
 18 16  1  0
 19 11  2  0
 19 16  1  0
 20 18  1  0
 21 19  1  0
M  END
>  <KEY>
RHEIN

>  <NAME>
Rhein

>  <SOURCE>
rcsb-ccd:RHN

>  <SMILES>
O=C(O)c1cc(O)c2c(c1)C(=O)c1cccc(O)c1C2=O

>  <FORMULA>
C15H8O6

>  <MW>
284.22

>  <HEAVY_ATOMS>
21

>  <ROTATABLE_BONDS>
1

$$$$
