ROSMARINIC_ACID
     RDKit          3D

 26 27  0  0  1  0  0  0  0  0999 V2000
   -4.3080   -0.7450    0.4440 C   0  0  0  0  0  0  0  0  0  0  0  0
   -4.3510   -2.1140    0.6480 C   0  0  0  0  0  0  0  0  0  0  0  0
   -5.0830   -2.6270    1.6730 O   0  0  0  0  0  0  0  0  0  0  0  0
   -3.6440   -2.9640   -0.1980 C   0  0  0  0  0  0  0  0  0  0  0  0
   -3.6840   -4.3090   -0.0010 O   0  0  0  0  0  0  0  0  0  0  0  0
   -2.9000   -2.4370   -1.2400 C   0  0  0  0  0  0  0  0  0  0  0  0
   -2.8610   -1.0690   -1.4390 C   0  0  0  0  0  0  0  0  0  0  0  0
   -3.5630   -0.2250   -0.5990 C   0  0  0  0  0  0  0  0  0  0  0  0
   -3.5170    1.2650   -0.8210 C   0  0  0  0  0  0  0  0  0  0  0  0
   -2.3520    1.8620   -0.0290 C   0  0  2  0  0  0  0  0  0  0  0  0
   -2.3790    3.3640   -0.1510 C   0  0  0  0  0  0  0  0  0  0  0  0
   -1.4800    3.9410   -0.7150 O   0  0  0  0  0  0  0  0  0  0  0  0
   -3.4030    4.0610    0.3660 O   0  0  0  0  0  0  0  0  0  0  0  0
   -1.1180    1.3640   -0.5490 O   0  0  0  0  0  0  0  0  0  0  0  0
   -0.0900    1.2480    0.3180 C   0  0  0  0  0  0  0  0  0  0  0  0
   -0.2400    1.5620    1.4840 O   0  0  0  0  0  0  0  0  0  0  0  0
    1.1640    0.7610   -0.1300 C   0  0  0  0  0  0  0  0  0  0  0  0
    2.1930    0.6450    0.7380 C   0  0  0  0  0  0  0  0  0  0  0  0
    3.4920    0.1400    0.2740 C   0  0  0  0  0  0  0  0  0  0  0  0
    4.5600    0.0190    1.1720 C   0  0  0  0  0  0  0  0  0  0  0  0
    5.7780   -0.4560    0.7300 C   0  0  0  0  0  0  0  0  0  0  0  0
    6.8170   -0.5750    1.5990 O   0  0  0  0  0  0  0  0  0  0  0  0
    5.9440   -0.8150   -0.6080 C   0  0  0  0  0  0  0  0  0  0  0  0
    7.1430   -1.2840   -1.0400 O   0  0  0  0  0  0  0  0  0  0  0  0
    4.8850   -0.6960   -1.4990 C   0  0  0  0  0  0  0  0  0  0  0  0
    3.6650   -0.2270   -1.0660 C   0  0  0  0  0  0  0  0  0  0  0  0
  1  2  1  0
  1  8  2  0
  2  3  1  0
  2  4  2  0
  4  5  1  0
  4  6  1  0
  6  7  2  0
  7  8  1  0
  8  9  1  0
 10  9  1  6
 10 11  1  0
 10 14  1  0
 11 12  2  0
 11 13  1  0
 14 15  1  0
 15 16  2  0
 15 17  1  0
 17 18  2  0
 18 19  1  0
 19 20  2  0
 19 26  1  0
 20 21  1  0
 21 22  1  0
 21 23  2  0
 23 24  1  0
 23 25  1  0
 25 26  2  0
M  END
>  <KEY>
ROSMARINIC_ACID

>  <NAME>
Rosmarinic acid

>  <SOURCE>
rcsb-ccd:ROA

>  <SMILES>
O=C(/C=C/c1ccc(O)c(O)c1)O[C@H](Cc1ccc(O)c(O)c1)C(=O)O

>  <FORMULA>
C18H16O8

>  <MW>
360.32

>  <HEAVY_ATOMS>
26

>  <ROTATABLE_BONDS>
6

$$$$
