ROTENONE
     RDKit          3D

 29 33  0  0  1  0  0  0  0  0999 V2000
   -1.2840    2.5120    0.9010 C   0  0  0  0  0  0  0  0  0  0  0  0
    1.0300   -0.5500   -3.2560 C   0  0  0  0  0  0  0  0  0  0  0  0
    2.2080   -0.9550   -1.2120 C   0  0  0  0  0  0  0  0  0  0  0  0
    3.5670    0.0040    1.0110 C   0  0  0  0  0  0  0  0  0  0  0  0
    2.7960    0.8590    0.2430 C   0  0  0  0  0  0  0  0  0  0  0  0
    2.1170    0.3830   -0.8660 C   0  0  0  0  0  0  0  0  0  0  0  0
    0.5570    2.2890   -0.7640 C   0  0  0  0  0  0  0  0  0  0  0  0
   -6.3840   -0.7160   -0.3620 C   0  0  0  0  0  0  0  0  0  0  0  0
   -5.5630   -1.5120    0.6200 C   0  0  0  0  0  0  0  0  0  0  0  0
   -6.0630   -2.5920    1.1680 C   0  0  0  0  0  0  0  0  0  0  0  0
   -4.1670   -1.0650    0.9710 C   0  0  1  0  0  0  0  0  0  0  0  0
   -3.2690   -1.0300   -0.2920 C   0  0  0  0  0  0  0  0  0  0  0  0
   -2.4210    0.1850   -0.0360 C   0  0  0  0  0  0  0  0  0  0  0  0
   -3.0310    0.9060    0.9990 C   0  0  0  0  0  0  0  0  0  0  0  0
   -4.1660    0.3070    1.4090 O   0  0  0  0  0  0  0  0  0  0  0  0
   -2.4490    2.0860    1.4840 C   0  0  0  0  0  0  0  0  0  0  0  0
   -0.6840    1.8040   -0.1420 C   0  0  0  0  0  0  0  0  0  0  0  0
   -1.2500    0.6070   -0.6320 C   0  0  0  0  0  0  0  0  0  0  0  0
   -0.6620   -0.0960   -1.6160 O   0  0  0  0  0  0  0  0  0  0  0  0
    0.2580    0.5480   -2.5010 C   0  0  1  0  0  0  0  0  0  0  0  0
    1.5510   -1.4630   -2.2890 O   0  0  0  0  0  0  0  0  0  0  0  0
    2.9840   -1.8160   -0.4430 C   0  0  0  0  0  0  0  0  0  0  0  0
    3.6620   -1.3410    0.6650 C   0  0  0  0  0  0  0  0  0  0  0  0
    1.2880    1.3380   -1.6810 C   0  0  2  0  0  0  0  0  0  0  0  0
    0.9770    3.4070   -0.5490 O   0  0  0  0  0  0  0  0  0  0  0  0
    4.2320    0.4770    2.1000 O   0  0  0  0  0  0  0  0  0  0  0  0
    4.0890    1.8680    2.3940 C   0  0  0  0  0  0  0  0  0  0  0  0
    4.4200   -2.1850    1.4140 O   0  0  0  0  0  0  0  0  0  0  0  0
    4.4710   -3.5520    0.9990 C   0  0  0  0  0  0  0  0  0  0  0  0
  1 17  1  0
  2 21  1  0
  3 22  1  0
  4 26  1  0
  5  4  2  0
  6  3  2  0
  6  5  1  0
  7 25  2  0
  8  9  1  0
 11  9  1  6
 10  9  2  0
 11 15  1  0
 11 12  1  0
 12 13  1  0
 13 18  1  0
 14 13  2  0
 14 16  1  0
 15 14  1  0
 16  1  2  0
 17  7  1  0
 18 19  1  0
 18 17  2  0
 19 20  1  0
 20  2  1  1
 20 24  1  0
 21  3  1  0
 22 23  2  0
 23  4  1  0
 23 28  1  0
 24  7  1  1
 24  6  1  0
 26 27  1  0
 28 29  1  0
M  END
>  <KEY>
ROTENONE

>  <NAME>
Rotenone

>  <SOURCE>
rcsb-ccd:970

>  <SMILES>
C=C(C)[C@H]1Cc2c(ccc3c2O[C@@H]2COc4cc(OC)c(OC)cc4[C@@H]2C3=O)O1

>  <FORMULA>
C23H22O6

>  <MW>
394.42

>  <HEAVY_ATOMS>
29

>  <ROTATABLE_BONDS>
3

$$$$
