RUTAECARPINE
     RDKit          3D

 22 26  0  0  0  0  0  0  0  0999 V2000
   -2.8618    2.5842    0.1979 O   0  0  0  0  0  0  0  0  0  0  0  0
   -0.9629    1.2274    0.0982 N   0  0  0  0  0  0  0  0  0  0  0  0
    1.7326   -1.3396    0.1876 N   0  0  0  0  0  0  0  0  0  0  0  0
   -1.1937   -1.1494    0.0051 N   0  0  0  0  0  0  0  0  0  0  0  0
    1.8416    0.8511   -0.1501 C   0  0  0  0  0  0  0  0  0  0  0  0
    1.3182    2.2209   -0.3791 C   0  0  0  0  0  0  0  0  0  0  0  0
    0.9779   -0.2068    0.0436 C   0  0  0  0  0  0  0  0  0  0  0  0
   -0.0460    2.3722    0.3095 C   0  0  0  0  0  0  0  0  0  0  0  0
   -0.4574   -0.0851    0.0559 C   0  0  0  0  0  0  0  0  0  0  0  0
    3.1703    0.3506   -0.1056 C   0  0  0  0  0  0  0  0  0  0  0  0
    3.0732   -1.0274    0.1106 C   0  0  0  0  0  0  0  0  0  0  0  0
   -2.3404    1.4769    0.1025 C   0  0  0  0  0  0  0  0  0  0  0  0
   -3.1946    0.2728    0.0081 C   0  0  0  0  0  0  0  0  0  0  0  0
    4.4495    0.9279   -0.2334 C   0  0  0  0  0  0  0  0  0  0  0  0
   -2.5865   -0.9868   -0.0265 C   0  0  0  0  0  0  0  0  0  0  0  0
    4.1969   -1.8557    0.2101 C   0  0  0  0  0  0  0  0  0  0  0  0
    5.5814    0.1108   -0.1346 C   0  0  0  0  0  0  0  0  0  0  0  0
    5.4547   -1.2593    0.0843 C   0  0  0  0  0  0  0  0  0  0  0  0
   -4.5881    0.3960   -0.0312 C   0  0  0  0  0  0  0  0  0  0  0  0
   -3.3967   -2.1255   -0.1025 C   0  0  0  0  0  0  0  0  0  0  0  0
   -5.3812   -0.7478   -0.1076 C   0  0  0  0  0  0  0  0  0  0  0  0
   -4.7868   -2.0073   -0.1429 C   0  0  0  0  0  0  0  0  0  0  0  0
  1 12  2  0
  2  8  1  0
  2  9  1  0
  2 12  1  0
  3  7  1  0
  3 11  1  0
  4  9  2  0
  4 15  1  0
  5  6  1  0
  5  7  2  0
  5 10  1  0
  6  8  1  0
  7  9  1  0
 10 11  1  0
 10 14  2  0
 11 16  2  0
 12 13  1  0
 13 15  1  0
 13 19  2  0
 14 17  1  0
 15 20  2  0
 16 18  1  0
 17 18  2  0
 19 21  1  0
 20 22  1  0
 21 22  2  0
M  END
>  <KEY>
RUTAECARPINE

>  <NAME>
Rutaecarpine

>  <SOURCE>
pubchem-3d:65752

>  <SMILES>
O=c1c2ccccc2nc2n1CCc1c-2[nH]c2ccccc12

>  <FORMULA>
C18H13N3O

>  <MW>
287.32

>  <HEAVY_ATOMS>
22

>  <ROTATABLE_BONDS>
0

$$$$
