SALVIANOLIC_ACID_A
     RDKit          3D

 36 38  0  0  1  0  0  0  0  0999 V2000
    0.6001    2.5443    0.3246 O   0  0  0  0  0  0  0  0  0  0  0  0
    2.4374    5.1790   -1.1163 O   0  0  0  0  0  0  0  0  0  0  0  0
    6.1489   -0.3416   -0.8133 O   0  0  0  0  0  0  0  0  0  0  0  0
    4.8952   -2.4533    0.4893 O   0  0  0  0  0  0  0  0  0  0  0  0
    0.8809    5.2755    0.5332 O   0  0  0  0  0  0  0  0  0  0  0  0
   -5.1249   -2.3641    0.3491 O   0  0  0  0  0  0  0  0  0  0  0  0
   -7.3546   -0.8194    0.8330 O   0  0  0  0  0  0  0  0  0  0  0  0
   -0.4084    3.4626   -1.5401 O   0  0  0  0  0  0  0  0  0  0  0  0
    1.4463   -3.5301   -2.6002 O   0  0  0  0  0  0  0  0  0  0  0  0
    2.7070   -4.8200   -0.4863 O   0  0  0  0  0  0  0  0  0  0  0  0
    2.8902    2.7949    1.0223 C   0  0  0  0  0  0  0  0  0  0  0  0
    1.8531    3.1245   -0.0535 C   0  0  2  0  0  0  0  0  0  0  0  0
    3.4293    1.3918    0.8772 C   0  0  0  0  0  0  0  0  0  0  0  0
    4.5495    1.1727    0.0917 C   0  0  0  0  0  0  0  0  0  0  0  0
    2.7936    0.3496    1.5326 C   0  0  0  0  0  0  0  0  0  0  0  0
   -3.8776   -0.3916   -0.2131 C   0  0  0  0  0  0  0  0  0  0  0  0
   -3.8153    0.9866   -0.3724 C   0  0  0  0  0  0  0  0  0  0  0  0
    1.6487    4.6222   -0.1611 C   0  0  0  0  0  0  0  0  0  0  0  0
    5.0476   -0.1234   -0.0418 C   0  0  0  0  0  0  0  0  0  0  0  0
    3.2915   -0.9465    1.3988 C   0  0  0  0  0  0  0  0  0  0  0  0
    4.4185   -1.1830    0.6117 C   0  0  0  0  0  0  0  0  0  0  0  0
   -5.0545   -1.0099    0.1898 C   0  0  0  0  0  0  0  0  0  0  0  0
   -2.5988    1.6733   -0.7937 C   0  0  0  0  0  0  0  0  0  0  0  0
   -4.9494    1.7602   -0.1250 C   0  0  0  0  0  0  0  0  0  0  0  0
   -2.6898   -1.2249   -0.4699 C   0  0  0  0  0  0  0  0  0  0  0  0
   -0.4392    2.7998   -0.5153 C   0  0  0  0  0  0  0  0  0  0  0  0
   -6.1886   -0.2363    0.4372 C   0  0  0  0  0  0  0  0  0  0  0  0
   -1.6366    2.1258    0.0363 C   0  0  0  0  0  0  0  0  0  0  0  0
   -6.1359    1.1486    0.2797 C   0  0  0  0  0  0  0  0  0  0  0  0
   -1.7751   -1.5879    0.4603 C   0  0  0  0  0  0  0  0  0  0  0  0
   -0.6130   -2.4261    0.2113 C   0  0  0  0  0  0  0  0  0  0  0  0
   -0.1303   -2.5812   -1.0882 C   0  0  0  0  0  0  0  0  0  0  0  0
    0.0192   -3.0749    1.2721 C   0  0  0  0  0  0  0  0  0  0  0  0
    0.9845   -3.3848   -1.3270 C   0  0  0  0  0  0  0  0  0  0  0  0
    1.1340   -3.8786    1.0332 C   0  0  0  0  0  0  0  0  0  0  0  0
    1.6167   -4.0336   -0.2662 C   0  0  0  0  0  0  0  0  0  0  0  0
  1 12  1  0
  1 26  1  0
  2 18  1  0
  3 19  1  0
  4 21  1  0
  5 18  2  0
  6 22  1  0
  7 27  1  0
  8 26  2  0
  9 34  1  0
 10 36  1  0
 12 11  1  1
 11 13  1  0
 12 18  1  0
 13 14  2  0
 13 15  1  0
 14 19  1  0
 15 20  2  0
 16 17  2  0
 16 22  1  0
 16 25  1  0
 17 23  1  0
 17 24  1  0
 19 21  2  0
 20 21  1  0
 22 27  2  0
 23 28  2  0
 24 29  2  0
 25 30  2  0
 26 28  1  0
 27 29  1  0
 30 31  1  0
 31 32  2  0
 31 33  1  0
 32 34  1  0
 33 35  2  0
 34 36  2  0
 35 36  1  0
M  END
>  <KEY>
SALVIANOLIC_ACID_A

>  <NAME>
Salvianolic acid A

>  <SOURCE>
pubchem-3d:5281793

>  <SMILES>
O=C(/C=C/c1ccc(O)c(O)c1/C=C/c1ccc(O)c(O)c1)O[C@H](Cc1ccc(O)c(O)c1)C(=O)O

>  <FORMULA>
C26H22O10

>  <MW>
494.45

>  <HEAVY_ATOMS>
36

>  <ROTATABLE_BONDS>
8

$$$$
