SANGUINARINE
     RDKit          3D

 25 30  0  0  0  0  0  0  0  0999 V2000
    0.2720    1.2660    0.4540 N   0  0  0  0  0  0  0  0  0  0  0  0
   -6.1640    1.0450   -0.0800 C   0  0  0  0  0  0  0  0  0  0  0  0
   -5.0110    1.5770   -0.7470 O   0  0  0  0  0  0  0  0  0  0  0  0
   -4.5230   -0.4880   -0.0840 C   0  0  0  0  0  0  0  0  0  0  0  0
   -5.8750   -0.3560   -0.1690 O   0  0  0  0  0  0  0  0  0  0  0  0
   -3.9690    0.7550   -0.4340 C   0  0  0  0  0  0  0  0  0  0  0  0
    5.9120   -0.0240   -0.4690 O   0  0  0  0  0  0  0  0  0  0  0  0
   -3.7060   -1.5390    0.2470 C   0  0  0  0  0  0  0  0  0  0  0  0
    4.6010    1.7030   -0.2000 O   0  0  0  0  0  0  0  0  0  0  0  0
   -2.3130   -1.3700    0.2240 C   0  0  0  0  0  0  0  0  0  0  0  0
   -1.7580   -0.0820    0.0110 C   0  0  0  0  0  0  0  0  0  0  0  0
   -2.6090    0.9490   -0.3940 C   0  0  0  0  0  0  0  0  0  0  0  0
   -1.4610   -2.4870    0.3610 C   0  0  0  0  0  0  0  0  0  0  0  0
   -0.1170   -2.3420    0.3240 C   0  0  0  0  0  0  0  0  0  0  0  0
   -0.3230    0.0970    0.2370 C   0  0  0  0  0  0  0  0  0  0  0  0
    1.5620    1.4590    0.3080 C   0  0  0  0  0  0  0  0  0  0  0  0
    2.4440    0.3950    0.0560 C   0  0  0  0  0  0  0  0  0  0  0  0
    1.9200   -0.9240    0.0310 C   0  0  0  0  0  0  0  0  0  0  0  0
    0.4750   -1.0760    0.2090 C   0  0  0  0  0  0  0  0  0  0  0  0
    2.7780   -2.0060   -0.1570 C   0  0  0  0  0  0  0  0  0  0  0  0
    4.1170   -1.7910   -0.3300 C   0  0  0  0  0  0  0  0  0  0  0  0
    4.6450   -0.5040   -0.3250 C   0  0  0  0  0  0  0  0  0  0  0  0
    3.8150    0.5940   -0.1470 C   0  0  0  0  0  0  0  0  0  0  0  0
    5.9350    1.2850    0.1140 C   0  0  0  0  0  0  0  0  0  0  0  0
   -0.4740    2.4060    0.9930 C   0  0  0  0  0  0  0  0  0  0  0  0
  1 15  1  0
  1 16  2  0
  1 25  1  0
  2  3  1  0
  2  5  1  0
  3  6  1  0
  4  5  1  0
  4  6  1  0
  4  8  2  0
  6 12  2  0
  7 22  1  0
  7 24  1  0
  8 10  1  0
  9 23  1  0
  9 24  1  0
 10 11  1  0
 10 13  2  0
 11 12  1  0
 11 15  2  0
 13 14  1  0
 14 19  2  0
 15 19  1  0
 16 17  1  0
 17 18  2  0
 17 23  1  0
 18 19  1  0
 18 20  1  0
 20 21  2  0
 21 22  1  0
 22 23  2  0
M  CHG  1   1   1
M  END
>  <KEY>
SANGUINARINE

>  <NAME>
Sanguinarine

>  <SOURCE>
rcsb-ccd:SAU

>  <SMILES>
C[n+]1cc2c3c(ccc2c2ccc4cc5c(cc4c21)OCO5)OCO3

>  <FORMULA>
C20H14NO4+

>  <MW>
332.34

>  <HEAVY_ATOMS>
25

>  <ROTATABLE_BONDS>
0

$$$$
