SCOPOLETIN
     RDKit          3D

 14 15  0  0  0  0  0  0  0  0999 V2000
   -2.7593    1.5247    2.4660 C   0  0  0  0  0  0  0  0  0  0  0  0
    2.8139    1.0889   -0.4561 C   0  0  0  0  0  0  0  0  0  0  0  0
    1.7417    1.4288    0.3065 C   0  0  0  0  0  0  0  0  0  0  0  0
   -0.5992   -1.3001   -0.7479 C   0  0  0  0  0  0  0  0  0  0  0  0
   -0.5999    0.8989    0.9755 C   0  0  0  0  0  0  0  0  0  0  0  0
   -1.7193   -0.9994    0.0066 C   0  0  0  0  0  0  0  0  0  0  0  0
   -1.7188    0.1012    0.8689 C   0  0  0  0  0  0  0  0  0  0  0  0
    2.7430   -0.0356   -1.3038 C   0  0  0  0  0  0  0  0  0  0  0  0
    0.5375    0.6001    0.2157 C   0  0  0  0  0  0  0  0  0  0  0  0
    0.5360   -0.5071   -0.6512 C   0  0  0  0  0  0  0  0  0  0  0  0
    3.7097   -0.3265   -1.9848 O   0  0  0  0  0  0  0  0  0  0  0  0
   -2.8265   -1.7790   -0.0915 O   0  0  0  0  0  0  0  0  0  0  0  0
   -2.8268    0.3861    1.6043 O   0  0  0  0  0  0  0  0  0  0  0  0
    1.6378   -0.7926   -1.3788 O   0  0  0  0  0  0  0  0  0  0  0  0
  2  8  1  0
  3  2  2  0
  4 10  2  0
  5  9  2  0
  6  4  1  0
  7  5  1  0
  7  6  2  0
  8 11  2  0
  9  3  1  0
  9 10  1  0
 10 14  1  0
 12  6  1  0
 13  1  1  0
 13  7  1  0
 14  8  1  0
M  END
>  <KEY>
SCOPOLETIN

>  <NAME>
Scopoletin

>  <SOURCE>
rcsb-ccd:T83

>  <SMILES>
COc1cc2ccc(=O)oc2cc1O

>  <FORMULA>
C10H8O4

>  <MW>
192.17

>  <HEAVY_ATOMS>
14

>  <ROTATABLE_BONDS>
1

$$$$
