SECOISOLARICIRESINOL
     RDKit          3D

 26 27  0  0  1  0  0  0  0  0999 V2000
    1.2950   -0.0530   -0.6120 C   0  0  0  0  0  0  0  0  0  0  0  0
   -2.9320    0.6750   -0.3730 C   0  0  0  0  0  0  0  0  0  0  0  0
   -3.5540   -0.5250   -0.6640 C   0  0  0  0  0  0  0  0  0  0  0  0
   -3.6730    1.7500    0.0790 C   0  0  0  0  0  0  0  0  0  0  0  0
    4.9830   -0.7080   -0.1190 C   0  0  0  0  0  0  0  0  0  0  0  0
   -5.0420    1.6330    0.2370 C   0  0  0  0  0  0  0  0  0  0  0  0
    4.7280    1.3090   -1.4010 C   0  0  0  0  0  0  0  0  0  0  0  0
    5.5470    0.3740   -0.7890 C   0  0  0  0  0  0  0  0  0  0  0  0
    5.1350   -2.7130    1.1520 C   0  0  0  0  0  0  0  0  0  0  0  0
   -0.3860   -1.4180    2.2910 O   0  0  0  0  0  0  0  0  0  0  0  0
    0.5710    2.8420    1.6690 O   0  0  0  0  0  0  0  0  0  0  0  0
   -5.5390   -1.8290   -0.7920 O   0  0  0  0  0  0  0  0  0  0  0  0
    5.7830   -1.6290    0.4830 O   0  0  0  0  0  0  0  0  0  0  0  0
   -7.0200    0.3210    0.0870 O   0  0  0  0  0  0  0  0  0  0  0  0
    6.8980    0.5130   -0.8430 O   0  0  0  0  0  0  0  0  0  0  0  0
   -0.7400    0.4160    0.7580 C   0  0  1  0  0  0  0  0  0  0  0  0
    0.7630    0.6700    0.6260 C   0  0  2  0  0  0  0  0  0  0  0  0
   -1.4400    0.8080   -0.5440 C   0  0  0  0  0  0  0  0  0  0  0  0
   -0.9840   -1.0680    1.0420 C   0  0  0  0  0  0  0  0  0  0  0  0
    1.0160    2.1730    0.4880 C   0  0  0  0  0  0  0  0  0  0  0  0
    2.7940    0.0950   -0.6750 C   0  0  0  0  0  0  0  0  0  0  0  0
    3.6050   -0.8420   -0.0620 C   0  0  0  0  0  0  0  0  0  0  0  0
    3.3530    1.1660   -1.3440 C   0  0  0  0  0  0  0  0  0  0  0  0
   -4.9240   -0.6510   -0.5020 C   0  0  0  0  0  0  0  0  0  0  0  0
   -5.6730    0.4350   -0.0570 C   0  0  0  0  0  0  0  0  0  0  0  0
   -4.7080   -2.9010   -1.2430 C   0  0  0  0  0  0  0  0  0  0  0  0
 17  1  1  6
  1 21  1  0
  2  4  1  0
  2 18  1  0
  3  2  2  0
  5 13  1  0
  6  4  2  0
  7  8  1  0
  8  5  2  0
  8 15  1  0
 12 24  1  0
 13  9  1  0
 14 25  1  0
 16 17  1  0
 17 20  1  0
 16 18  1  6
 19 10  1  0
 19 16  1  0
 20 11  1  0
 21 22  2  0
 22  5  1  0
 23 21  1  0
 23  7  2  0
 24 25  2  0
 24  3  1  0
 25  6  1  0
 26 12  1  0
M  END
>  <KEY>
SECOISOLARICIRESINOL

>  <NAME>
Secoisolariciresinol

>  <SOURCE>
rcsb-ccd:GO6

>  <SMILES>
COc1cc(C[C@@H](CO)[C@H](CO)Cc2ccc(O)c(OC)c2)ccc1O

>  <FORMULA>
C20H26O6

>  <MW>
362.42

>  <HEAVY_ATOMS>
26

>  <ROTATABLE_BONDS>
9

$$$$
