SENNIDIN_A
     RDKit          3D

 40 45  0  0  1  0  0  0  0  0999 V2000
   -2.7926   -2.5268    1.0754 O   0  0  0  0  0  0  0  0  0  0  0  0
    2.7926   -2.5268   -1.0754 O   0  0  0  0  0  0  0  0  0  0  0  0
   -4.9302   -1.1363    0.6542 O   0  0  0  0  0  0  0  0  0  0  0  0
    4.9303   -1.1364   -0.6542 O   0  0  0  0  0  0  0  0  0  0  0  0
   -1.0794   -3.7680    2.5601 O   0  0  0  0  0  0  0  0  0  0  0  0
    1.0794   -3.7680   -2.5602 O   0  0  0  0  0  0  0  0  0  0  0  0
   -5.7039    3.4547   -0.6322 O   0  0  0  0  0  0  0  0  0  0  0  0
    5.7039    3.4547    0.6321 O   0  0  0  0  0  0  0  0  0  0  0  0
   -3.7158    4.5563   -0.6511 O   0  0  0  0  0  0  0  0  0  0  0  0
    3.7158    4.5564    0.6511 O   0  0  0  0  0  0  0  0  0  0  0  0
   -0.3406    0.7808    0.6881 C   0  0  1  0  0  0  0  0  0  0  0  0
    0.3406    0.7808   -0.6882 C   0  0  1  0  0  0  0  0  0  0  0  0
   -1.8422    0.8928    0.5204 C   0  0  0  0  0  0  0  0  0  0  0  0
    1.8423    0.8927   -0.5204 C   0  0  0  0  0  0  0  0  0  0  0  0
    0.0988   -0.4340    1.4799 C   0  0  0  0  0  0  0  0  0  0  0  0
   -0.0988   -0.4341   -1.4799 C   0  0  0  0  0  0  0  0  0  0  0  0
   -2.6875   -0.2097    0.6975 C   0  0  0  0  0  0  0  0  0  0  0  0
    2.6874   -0.2097   -0.6976 C   0  0  0  0  0  0  0  0  0  0  0  0
   -0.7418   -1.5396    1.6596 C   0  0  0  0  0  0  0  0  0  0  0  0
    0.7418   -1.5396   -1.6595 C   0  0  0  0  0  0  0  0  0  0  0  0
   -2.1271   -1.5016    1.1460 C   0  0  0  0  0  0  0  0  0  0  0  0
    2.1271   -1.5016   -1.1460 C   0  0  0  0  0  0  0  0  0  0  0  0
   -2.4102    2.1193    0.1379 C   0  0  0  0  0  0  0  0  0  0  0  0
    2.4103    2.1192   -0.1379 C   0  0  0  0  0  0  0  0  0  0  0  0
    1.3952   -0.4819    2.0187 C   0  0  0  0  0  0  0  0  0  0  0  0
   -1.3952   -0.4820   -2.0187 C   0  0  0  0  0  0  0  0  0  0  0  0
   -4.0665   -0.0955    0.4817 C   0  0  0  0  0  0  0  0  0  0  0  0
    4.0665   -0.0956   -0.4817 C   0  0  0  0  0  0  0  0  0  0  0  0
   -0.2937   -2.6743    2.3474 C   0  0  0  0  0  0  0  0  0  0  0  0
    0.2936   -2.6743   -2.3474 C   0  0  0  0  0  0  0  0  0  0  0  0
   -3.7849    2.2363   -0.0711 C   0  0  0  0  0  0  0  0  0  0  0  0
    3.7848    2.2363    0.0711 C   0  0  0  0  0  0  0  0  0  0  0  0
    1.8410   -1.6092    2.7098 C   0  0  0  0  0  0  0  0  0  0  0  0
   -1.8410   -1.6092   -2.7097 C   0  0  0  0  0  0  0  0  0  0  0  0
   -4.6112    1.1286    0.0969 C   0  0  0  0  0  0  0  0  0  0  0  0
    4.6111    1.1285   -0.0968 C   0  0  0  0  0  0  0  0  0  0  0  0
    0.9982   -2.7055    2.8704 C   0  0  0  0  0  0  0  0  0  0  0  0
   -0.9981   -2.7056   -2.8704 C   0  0  0  0  0  0  0  0  0  0  0  0
   -4.3537    3.5140   -0.4697 C   0  0  0  0  0  0  0  0  0  0  0  0
    4.3537    3.5141    0.4697 C   0  0  0  0  0  0  0  0  0  0  0  0
  1 21  2  0
  2 22  2  0
  3 27  1  0
  4 28  1  0
  5 29  1  0
  6 30  1  0
  7 39  1  0
  8 40  1  0
  9 39  2  0
 10 40  2  0
 11 12  1  0
 11 13  1  6
 11 15  1  0
 12 14  1  1
 12 16  1  0
 13 17  1  0
 13 23  2  0
 14 18  1  0
 14 24  2  0
 15 19  1  0
 15 25  2  0
 16 20  1  0
 16 26  2  0
 17 21  1  0
 17 27  2  0
 18 22  1  0
 18 28  2  0
 19 21  1  0
 19 29  2  0
 20 22  1  0
 20 30  2  0
 23 31  1  0
 24 32  1  0
 25 33  1  0
 26 34  1  0
 27 35  1  0
 28 36  1  0
 29 37  1  0
 30 38  1  0
 31 35  2  0
 31 39  1  0
 32 36  2  0
 32 40  1  0
 33 37  2  0
 34 38  2  0
M  END
>  <KEY>
SENNIDIN_A

>  <NAME>
Sennidin A

>  <SOURCE>
pubchem-3d:92826

>  <SMILES>
O=C(O)c1cc(O)c2c(c1)[C@H]([C@@H]1c3cccc(O)c3C(=O)c3c(O)cc(C(=O)O)cc31)c1cccc(O)c1C2=O

>  <FORMULA>
C30H18O10

>  <MW>
538.46

>  <HEAVY_ATOMS>
40

>  <ROTATABLE_BONDS>
3

$$$$
