SESAMIN
     RDKit          3D

 26 31  0  0  1  0  0  0  0  0999 V2000
   -1.1967    1.4912   -0.8971 O   0  0  0  0  0  0  0  0  0  0  0  0
    1.1963   -1.4912   -0.8974 O   0  0  0  0  0  0  0  0  0  0  0  0
   -5.8224    1.3407    1.2744 O   0  0  0  0  0  0  0  0  0  0  0  0
    5.8223   -1.3408    1.2744 O   0  0  0  0  0  0  0  0  0  0  0  0
   -6.9461   -0.5958    0.3830 O   0  0  0  0  0  0  0  0  0  0  0  0
    6.9461    0.5958    0.3832 O   0  0  0  0  0  0  0  0  0  0  0  0
   -0.5762   -0.4836    0.3048 C   0  0  1  0  0  0  0  0  0  0  0  0
    0.5764    0.4838    0.3045 C   0  0  1  0  0  0  0  0  0  0  0  0
   -1.4940    0.0841   -0.7863 C   0  0  1  0  0  0  0  0  0  0  0  0
    1.4940   -0.0842   -0.7866 C   0  0  1  0  0  0  0  0  0  0  0  0
   -0.0804    1.7991   -0.0506 C   0  0  0  0  0  0  0  0  0  0  0  0
    0.0805   -1.7990   -0.0504 C   0  0  0  0  0  0  0  0  0  0  0  0
   -2.9596   -0.1301   -0.4921 C   0  0  0  0  0  0  0  0  0  0  0  0
    2.9595    0.1301   -0.4923 C   0  0  0  0  0  0  0  0  0  0  0  0
   -3.6546    0.7945    0.2937 C   0  0  0  0  0  0  0  0  0  0  0  0
    3.6547   -0.7946    0.2935 C   0  0  0  0  0  0  0  0  0  0  0  0
   -3.6182   -1.2604   -1.0115 C   0  0  0  0  0  0  0  0  0  0  0  0
    3.6183    1.2604   -1.0116 C   0  0  0  0  0  0  0  0  0  0  0  0
   -4.9921    0.5560    0.5350 C   0  0  0  0  0  0  0  0  0  0  0  0
    4.9920   -0.5560    0.5350 C   0  0  0  0  0  0  0  0  0  0  0  0
   -4.9733   -1.4783   -0.7521 C   0  0  0  0  0  0  0  0  0  0  0  0
    4.9734    1.4783   -0.7521 C   0  0  0  0  0  0  0  0  0  0  0  0
   -5.6337   -0.5499    0.0260 C   0  0  0  0  0  0  0  0  0  0  0  0
    5.6337    0.5499    0.0261 C   0  0  0  0  0  0  0  0  0  0  0  0
   -7.0589    0.6052    1.1733 C   0  0  0  0  0  0  0  0  0  0  0  0
    7.0588   -0.6052    1.1734 C   0  0  0  0  0  0  0  0  0  0  0  0
  1  9  1  0
  1 11  1  0
  2 10  1  0
  2 12  1  0
  3 19  1  0
  3 25  1  0
  4 20  1  0
  4 26  1  0
  5 23  1  0
  5 25  1  0
  6 24  1  0
  6 26  1  0
  7  8  1  0
  7  9  1  0
  7 12  1  6
  8 10  1  0
  8 11  1  6
  9 13  1  1
 10 14  1  1
 13 15  2  0
 13 17  1  0
 14 16  2  0
 14 18  1  0
 15 19  1  0
 16 20  1  0
 17 21  2  0
 18 22  2  0
 19 23  2  0
 20 24  2  0
 21 23  1  0
 22 24  1  0
M  END
>  <KEY>
SESAMIN

>  <NAME>
Sesamin

>  <SOURCE>
pubchem-3d:72307

>  <SMILES>
c1cc2c(cc1[C@H]1OC[C@H]3[C@@H]1CO[C@@H]3c1ccc3c(c1)OCO3)OCO2

>  <FORMULA>
C20H18O6

>  <MW>
354.36

>  <HEAVY_ATOMS>
26

>  <ROTATABLE_BONDS>
2

$$$$
