SHIKONIN
     RDKit          3D

 21 22  0  0  1  0  0  0  0  0999 V2000
    0.3100   -0.8210    0.3060 C   0  0  0  0  0  0  0  0  0  0  0  0
    1.4590    1.7920    0.3280 C   0  0  0  0  0  0  0  0  0  0  0  0
    2.5280   -1.7580   -0.3490 C   0  0  0  0  0  0  0  0  0  0  0  0
   -5.0450    0.2380   -0.7050 C   0  0  0  0  0  0  0  0  0  0  0  0
   -4.5680    0.9040   -1.9700 C   0  0  0  0  0  0  0  0  0  0  0  0
   -6.5040    0.2850   -0.3320 C   0  0  0  0  0  0  0  0  0  0  0  0
   -1.9590    0.1870    0.9930 C   0  0  1  0  0  0  0  0  0  0  0  0
   -0.5020    0.3610    0.6490 C   0  0  0  0  0  0  0  0  0  0  0  0
   -2.7160   -0.3240   -0.2350 C   0  0  0  0  0  0  0  0  0  0  0  0
    1.7360   -0.6560   -0.0250 C   0  0  0  0  0  0  0  0  0  0  0  0
    2.3030    0.6340   -0.0140 C   0  0  0  0  0  0  0  0  0  0  0  0
    0.0370    1.5870    0.6600 C   0  0  0  0  0  0  0  0  0  0  0  0
   -4.1900   -0.3820    0.0710 C   0  0  0  0  0  0  0  0  0  0  0  0
    3.6520    0.7990   -0.3330 C   0  0  0  0  0  0  0  0  0  0  0  0
    3.8790   -1.5740   -0.6600 C   0  0  0  0  0  0  0  0  0  0  0  0
    4.4310   -0.3160   -0.6540 C   0  0  0  0  0  0  0  0  0  0  0  0
   -2.0880   -0.7570    2.0580 O   0  0  0  0  0  0  0  0  0  0  0  0
   -0.1940   -1.9270    0.3000 O   0  0  0  0  0  0  0  0  0  0  0  0
    1.9920   -3.0030   -0.3560 O   0  0  0  0  0  0  0  0  0  0  0  0
    1.9340    2.9110    0.3420 O   0  0  0  0  0  0  0  0  0  0  0  0
    4.2040    2.0370   -0.3310 O   0  0  0  0  0  0  0  0  0  0  0  0
  1 18  2  0
  1 10  1  0
  2 11  1  0
  3 19  1  0
  3 15  1  0
  4  5  1  0
  4 13  2  3
  6  4  1  0
  7 17  1  1
  7  9  1  0
  7  8  1  0
  8  1  1  0
 10  3  2  0
 11 10  1  0
 11 14  2  0
 12  8  2  0
 12  2  1  0
 13  9  1  0
 14 16  1  0
 16 15  2  0
 20  2  2  0
 21 14  1  0
M  END
>  <KEY>
SHIKONIN

>  <NAME>
Shikonin

>  <SOURCE>
rcsb-ccd:FNO

>  <SMILES>
CC(C)=CC[C@@H](O)C1=CC(=O)c2c(O)ccc(O)c2C1=O

>  <FORMULA>
C16H16O5

>  <MW>
288.30

>  <HEAVY_ATOMS>
21

>  <ROTATABLE_BONDS>
3

$$$$
