SILIBININ
     RDKit          3D

 35 39  0  0  1  0  0  0  0  0999 V2000
    1.8496   -0.0580    0.3713 O   0  0  0  0  0  0  0  0  0  0  0  0
    2.4090   -2.8785    0.4994 O   0  0  0  0  0  0  0  0  0  0  0  0
   -3.2660   -0.2457    0.8250 O   0  0  0  0  0  0  0  0  0  0  0  0
   -2.6733   -0.9779   -2.7354 O   0  0  0  0  0  0  0  0  0  0  0  0
    4.9731   -3.7225    0.0464 O   0  0  0  0  0  0  0  0  0  0  0  0
   -4.9833    0.4216   -2.8421 O   0  0  0  0  0  0  0  0  0  0  0  0
   -7.0570    1.4730   -1.6827 O   0  0  0  0  0  0  0  0  0  0  0  0
    5.8561    2.2706   -1.9375 O   0  0  0  0  0  0  0  0  0  0  0  0
   -7.0022    1.6240    3.0601 O   0  0  0  0  0  0  0  0  0  0  0  0
    6.9999    3.4580    0.2997 O   0  0  0  0  0  0  0  0  0  0  0  0
    3.0746   -0.5790    0.9169 C   0  0  1  0  0  0  0  0  0  0  0  0
    3.4326   -1.9054    0.2267 C   0  0  1  0  0  0  0  0  0  0  0  0
   -2.8830   -1.0125   -0.3276 C   0  0  2  0  0  0  0  0  0  0  0  0
   -1.4629   -1.4934   -0.0959 C   0  0  0  0  0  0  0  0  0  0  0  0
   -2.9993   -0.1838   -1.6081 C   0  0  2  0  0  0  0  0  0  0  0  0
    0.8793   -1.0139    0.2428 C   0  0  0  0  0  0  0  0  0  0  0  0
    1.1486   -2.3800    0.3150 C   0  0  0  0  0  0  0  0  0  0  0  0
    4.1229    0.4991    0.7488 C   0  0  0  0  0  0  0  0  0  0  0  0
   -0.4246   -0.5693    0.0222 C   0  0  0  0  0  0  0  0  0  0  0  0
    4.7412   -2.5062    0.7326 C   0  0  0  0  0  0  0  0  0  0  0  0
   -1.1976   -2.8592    0.0043 C   0  0  0  0  0  0  0  0  0  0  0  0
   -4.4311    0.2821   -1.7572 C   0  0  0  0  0  0  0  0  0  0  0  0
    0.1082   -3.3039    0.2115 C   0  0  0  0  0  0  0  0  0  0  0  0
   -5.1316    0.6027   -0.4981 C   0  0  0  0  0  0  0  0  0  0  0  0
   -4.5016    0.3350    0.7193 C   0  0  0  0  0  0  0  0  0  0  0  0
    4.5149    0.8965   -0.5293 C   0  0  0  0  0  0  0  0  0  0  0  0
    4.6967    1.0946    1.8718 C   0  0  0  0  0  0  0  0  0  0  0  0
   -6.3980    1.1934   -0.5236 C   0  0  0  0  0  0  0  0  0  0  0  0
   -5.1269    0.6920    1.9150 C   0  0  0  0  0  0  0  0  0  0  0  0
    5.4817    1.8900   -0.6844 C   0  0  0  0  0  0  0  0  0  0  0  0
    5.6635    2.0879    1.7167 C   0  0  0  0  0  0  0  0  0  0  0  0
   -6.3894    1.2853    1.8926 C   0  0  0  0  0  0  0  0  0  0  0  0
   -7.0255    1.5310    0.6758 C   0  0  0  0  0  0  0  0  0  0  0  0
    6.0559    2.4858    0.4387 C   0  0  0  0  0  0  0  0  0  0  0  0
    6.9458    1.5668   -2.5304 C   0  0  0  0  0  0  0  0  0  0  0  0
  1 11  1  0
  1 16  1  0
  2 12  1  0
  2 17  1  0
  3 13  1  0
  3 25  1  0
 15  4  1  6
  5 20  1  0
  6 22  2  0
  7 28  1  0
  8 30  1  0
  8 35  1  0
  9 32  1  0
 10 34  1  0
 11 12  1  0
 11 18  1  6
 12 20  1  1
 13 14  1  1
 13 15  1  0
 14 19  2  0
 14 21  1  0
 15 22  1  0
 16 17  2  0
 16 19  1  0
 17 23  1  0
 18 26  2  0
 18 27  1  0
 21 23  2  0
 22 24  1  0
 24 25  1  0
 24 28  2  0
 25 29  2  0
 26 30  1  0
 27 31  2  0
 28 33  1  0
 29 32  1  0
 30 34  2  0
 31 34  1  0
 32 33  2  0
M  END
>  <KEY>
SILIBININ

>  <NAME>
Silibinin

>  <SOURCE>
pubchem-3d:31553

>  <SMILES>
COc1cc([C@H]2Oc3cc([C@H]4Oc5cc(O)cc(O)c5C(=O)[C@@H]4O)ccc3O[C@@H]2CO)ccc1O

>  <FORMULA>
C25H22O10

>  <MW>
482.44

>  <HEAVY_ATOMS>
35

>  <ROTATABLE_BONDS>
4

$$$$
