SULFORAPHANE
     RDKit          3D

 10  9  0  0  1  0  0  0  0  0999 V2000
   -3.1196   -0.5263    0.5207 S   0  0  0  0  0  0  0  0  0  0  0  0
    4.8934   -0.9856    0.2115 S   0  0  0  0  0  0  0  0  0  0  0  0
   -2.8644   -1.7904   -0.2397 O   0  0  0  0  0  0  0  0  0  0  0  0
    2.3198   -0.1561   -0.3776 N   0  0  0  0  0  0  0  0  0  0  0  0
   -0.5119    0.4017    0.2895 C   0  0  0  0  0  0  0  0  0  0  0  0
    0.4889    1.4566   -0.2001 C   0  0  0  0  0  0  0  0  0  0  0  0
   -1.9508    0.7198   -0.1029 C   0  0  0  0  0  0  0  0  0  0  0  0
    1.9225    1.1272    0.2038 C   0  0  0  0  0  0  0  0  0  0  0  0
   -4.5921    0.2512   -0.1841 C   0  0  0  0  0  0  0  0  0  0  0  0
    3.4141   -0.4981   -0.1210 C   0  0  0  0  0  0  0  0  0  0  0  0
  1  3  2  0
  1  7  1  0
  1  9  1  6
  2 10  2  0
  4  8  1  0
  4 10  2  0
  5  6  1  0
  5  7  1  0
  6  8  1  0
M  END
>  <KEY>
SULFORAPHANE

>  <NAME>
Sulforaphane

>  <SOURCE>
pubchem-3d:9577379

>  <SMILES>
C[S@@](=O)CCCCN=C=S

>  <FORMULA>
C6H11NOS2

>  <MW>
177.29

>  <HEAVY_ATOMS>
10

>  <ROTATABLE_BONDS>
5

$$$$
