TANGERETIN
     RDKit          3D

 27 29  0  0  0  0  0  0  0  0999 V2000
    0.5632    0.3980   -0.0702 O   0  0  0  0  0  0  0  0  0  0  0  0
   -3.4761   -2.2507    0.2636 O   0  0  0  0  0  0  0  0  0  0  0  0
   -0.9535    2.6343   -0.2723 O   0  0  0  0  0  0  0  0  0  0  0  0
   -4.9476    0.0373    0.0559 O   0  0  0  0  0  0  0  0  0  0  0  0
   -3.7036    2.4799   -0.2112 O   0  0  0  0  0  0  0  0  0  0  0  0
   -1.0892   -3.3046    0.3281 O   0  0  0  0  0  0  0  0  0  0  0  0
    6.8843    0.2628   -0.1801 O   0  0  0  0  0  0  0  0  0  0  0  0
   -1.4314   -0.9775    0.1018 C   0  0  0  0  0  0  0  0  0  0  0  0
   -0.8011    0.2584   -0.0334 C   0  0  0  0  0  0  0  0  0  0  0  0
   -2.8254   -1.0599    0.1325 C   0  0  0  0  0  0  0  0  0  0  0  0
   -1.5633    1.4219   -0.1392 C   0  0  0  0  0  0  0  0  0  0  0  0
   -3.5854    0.1055    0.0268 C   0  0  0  0  0  0  0  0  0  0  0  0
   -2.9559    1.3439   -0.1088 C   0  0  0  0  0  0  0  0  0  0  0  0
    1.3469   -0.7407    0.0390 C   0  0  0  0  0  0  0  0  0  0  0  0
   -0.6034   -2.1884    0.2095 C   0  0  0  0  0  0  0  0  0  0  0  0
    0.8587   -1.9848    0.1665 C   0  0  0  0  0  0  0  0  0  0  0  0
    2.7989   -0.4774   -0.0191 C   0  0  0  0  0  0  0  0  0  0  0  0
    3.6646   -1.4331   -0.5565 C   0  0  0  0  0  0  0  0  0  0  0  0
    3.3132    0.7284    0.4639 C   0  0  0  0  0  0  0  0  0  0  0  0
    5.0362   -1.1844   -0.6105 C   0  0  0  0  0  0  0  0  0  0  0  0
    4.6847    0.9771    0.4098 C   0  0  0  0  0  0  0  0  0  0  0  0
    5.5462    0.0207   -0.1275 C   0  0  0  0  0  0  0  0  0  0  0  0
   -3.8053   -2.9440   -0.9380 C   0  0  0  0  0  0  0  0  0  0  0  0
   -0.6435    3.3378    0.9283 C   0  0  0  0  0  0  0  0  0  0  0  0
   -5.5721    0.1331    1.3336 C   0  0  0  0  0  0  0  0  0  0  0  0
   -4.0785    2.8910   -1.5237 C   0  0  0  0  0  0  0  0  0  0  0  0
    7.3383    1.5152    0.3312 C   0  0  0  0  0  0  0  0  0  0  0  0
  1  9  1  0
  1 14  1  0
  2 10  1  0
  2 23  1  0
  3 11  1  0
  3 24  1  0
  4 12  1  0
  4 25  1  0
  5 13  1  0
  5 26  1  0
  6 15  2  0
  7 22  1  0
  7 27  1  0
  8  9  1  0
  8 10  2  0
  8 15  1  0
  9 11  2  0
 10 12  1  0
 11 13  1  0
 12 13  2  0
 14 16  2  0
 14 17  1  0
 15 16  1  0
 17 18  1  0
 17 19  2  0
 18 20  2  0
 19 21  1  0
 20 22  1  0
 21 22  2  0
M  END
>  <KEY>
TANGERETIN

>  <NAME>
Tangeretin

>  <SOURCE>
pubchem-3d:68077

>  <SMILES>
COc1ccc(-c2cc(=O)c3c(OC)c(OC)c(OC)c(OC)c3o2)cc1

>  <FORMULA>
C20H20O7

>  <MW>
372.37

>  <HEAVY_ATOMS>
27

>  <ROTATABLE_BONDS>
6

$$$$
