TANSHINONE_IIA
     RDKit          3D

 22 25  0  0  0  0  0  0  0  0999 V2000
    2.6143   -2.1666    0.0197 O   0  0  0  0  0  0  0  0  0  0  0  0
    0.4882    2.7531   -0.2976 O   0  0  0  0  0  0  0  0  0  0  0  0
    3.0871    2.4046    0.0418 O   0  0  0  0  0  0  0  0  0  0  0  0
   -3.8184   -0.5683   -0.0490 C   0  0  0  0  0  0  0  0  0  0  0  0
   -4.3318    0.8557   -0.3649 C   0  0  0  0  0  0  0  0  0  0  0  0
   -2.2815   -0.6296   -0.0299 C   0  0  0  0  0  0  0  0  0  0  0  0
   -3.5951    1.9082    0.4392 C   0  0  0  0  0  0  0  0  0  0  0  0
   -1.4741    0.5397    0.0067 C   0  0  0  0  0  0  0  0  0  0  0  0
   -2.1212    1.9077    0.0601 C   0  0  0  0  0  0  0  0  0  0  0  0
   -4.4130   -1.4968   -1.1349 C   0  0  0  0  0  0  0  0  0  0  0  0
   -4.3537   -1.0242    1.3266 C   0  0  0  0  0  0  0  0  0  0  0  0
   -0.0589    0.4052   -0.0288 C   0  0  0  0  0  0  0  0  0  0  0  0
   -1.6533   -1.8914   -0.0123 C   0  0  0  0  0  0  0  0  0  0  0  0
    0.5330   -0.8839   -0.0129 C   0  0  0  0  0  0  0  0  0  0  0  0
   -0.2683   -2.0205    0.0031 C   0  0  0  0  0  0  0  0  0  0  0  0
    1.9766   -0.9703   -0.0010 C   0  0  0  0  0  0  0  0  0  0  0  0
    0.8659    1.6063   -0.1131 C   0  0  0  0  0  0  0  0  0  0  0  0
    2.8710    0.0678    0.0081 C   0  0  0  0  0  0  0  0  0  0  0  0
    2.3739    1.4131   -0.0108 C   0  0  0  0  0  0  0  0  0  0  0  0
    4.1553   -0.5120    0.0399 C   0  0  0  0  0  0  0  0  0  0  0  0
    3.9471   -1.8763    0.0438 C   0  0  0  0  0  0  0  0  0  0  0  0
    5.4567    0.1782    0.0663 C   0  0  0  0  0  0  0  0  0  0  0  0
  1 16  1  0
  1 21  1  0
  2 17  2  0
  3 19  2  0
  4  5  1  0
  4  6  1  0
  4 10  1  0
  4 11  1  0
  5  7  1  0
  6  8  1  0
  6 13  2  0
  7  9  1  0
  8  9  1  0
  8 12  2  0
 12 14  1  0
 12 17  1  0
 13 15  1  0
 14 15  2  0
 14 16  1  0
 16 18  2  0
 17 19  1  0
 18 19  1  0
 18 20  1  0
 20 21  2  0
 20 22  1  0
M  END
>  <KEY>
TANSHINONE_IIA

>  <NAME>
Tanshinone IIA

>  <SOURCE>
pubchem-3d:164676

>  <SMILES>
Cc1coc2c1C(=O)C(=O)c1c-2ccc2c1CCCC2(C)C

>  <FORMULA>
C19H18O3

>  <MW>
294.35

>  <HEAVY_ATOMS>
22

>  <ROTATABLE_BONDS>
0

$$$$
