TAXIFOLIN
     RDKit          3D

 22 24  0  0  1  0  0  0  0  0999 V2000
   -0.5030    0.2670    4.4860 C   0  0  0  0  0  0  0  0  0  0  0  0
    0.6150    0.0480    3.7040 C   0  0  0  0  0  0  0  0  0  0  0  0
    0.4700   -0.1160    2.3170 C   0  0  0  0  0  0  0  0  0  0  0  0
   -0.8020   -0.0970    1.7230 C   0  0  0  0  0  0  0  0  0  0  0  0
   -1.9100    0.1310    2.5300 C   0  0  0  0  0  0  0  0  0  0  0  0
   -1.7600    0.3130    3.8960 C   0  0  0  0  0  0  0  0  0  0  0  0
    1.6590   -0.2970    1.4690 C   0  0  0  0  0  0  0  0  0  0  0  0
    1.3710   -0.6150    0.0100 C   0  0  1  0  0  0  0  0  0  0  0  0
    0.1070    0.1780   -0.3550 C   0  0  1  0  0  0  0  0  0  0  0  0
   -0.1860    0.0030   -1.8230 C   0  0  0  0  0  0  0  0  0  0  0  0
   -0.9940   -1.0340   -2.2460 C   0  0  0  0  0  0  0  0  0  0  0  0
   -1.2660   -1.1990   -3.5920 C   0  0  0  0  0  0  0  0  0  0  0  0
   -0.7290   -0.3210   -4.5190 C   0  0  0  0  0  0  0  0  0  0  0  0
    0.0840    0.7240   -4.0930 C   0  0  0  0  0  0  0  0  0  0  0  0
    0.3490    0.8860   -2.7430 C   0  0  0  0  0  0  0  0  0  0  0  0
   -0.9950   -0.2930    0.4030 O   0  0  0  0  0  0  0  0  0  0  0  0
    2.7880   -0.1980    1.9030 O   0  0  0  0  0  0  0  0  0  0  0  0
    0.6140    1.5880   -5.0000 O   0  0  0  0  0  0  0  0  0  0  0  0
   -0.9960   -0.4810   -5.8430 O   0  0  0  0  0  0  0  0  0  0  0  0
    2.4660   -0.2020   -0.8090 O   0  0  0  0  0  0  0  0  0  0  0  0
   -2.8540    0.5390    4.6660 O   0  0  0  0  0  0  0  0  0  0  0  0
    1.8450   -0.0070    4.2730 O   0  0  0  0  0  0  0  0  0  0  0  0
  1  2  1  0
  1  6  2  0
  2  3  2  0
  2 22  1  0
  3  4  1  0
  3  7  1  0
  4  5  2  0
  4 16  1  0
  5  6  1  0
  6 21  1  0
  7  8  1  0
  7 17  2  0
  8  9  1  0
  8 20  1  6
  9 10  1  6
  9 16  1  0
 10 11  1  0
 10 15  2  0
 11 12  2  0
 12 13  1  0
 13 14  2  0
 13 19  1  0
 14 15  1  0
 14 18  1  0
M  END
>  <KEY>
TAXIFOLIN

>  <NAME>
Taxifolin

>  <SOURCE>
rcsb-ccd:DQH

>  <SMILES>
O=C1c2c(O)cc(O)cc2O[C@H](c2ccc(O)c(O)c2)[C@H]1O

>  <FORMULA>
C15H12O7

>  <MW>
304.25

>  <HEAVY_ATOMS>
22

>  <ROTATABLE_BONDS>
1

$$$$
