TETRANDRINE
     RDKit          3D

 46 52  0  0  1  0  0  0  0  0999 V2000
    1.0514    0.3972   -0.7179 O   0  0  0  0  0  0  0  0  0  0  0  0
    3.6745    0.5554   -1.6667 O   0  0  0  0  0  0  0  0  0  0  0  0
    5.1097    2.8830   -1.3393 O   0  0  0  0  0  0  0  0  0  0  0  0
    2.8225    0.3927    1.6454 O   0  0  0  0  0  0  0  0  0  0  0  0
   -4.6202   -0.8170   -0.8485 O   0  0  0  0  0  0  0  0  0  0  0  0
   -6.5202    0.9812   -0.1262 O   0  0  0  0  0  0  0  0  0  0  0  0
   -0.7181    3.6855    1.3457 N   0  0  0  0  0  0  0  0  0  0  0  0
    1.5681   -5.6401   -0.1876 N   0  0  0  0  0  0  0  0  0  0  0  0
   -0.3275    2.6597    0.3504 C   0  0  2  0  0  0  0  0  0  0  0  0
    0.6846   -4.4648   -0.3922 C   0  0  2  0  0  0  0  0  0  0  0  0
    1.1491    2.6923   -0.0286 C   0  0  0  0  0  0  0  0  0  0  0  0
   -0.1983    5.0136    0.9998 C   0  0  0  0  0  0  0  0  0  0  0  0
    1.8992    3.8715    0.1317 C   0  0  0  0  0  0  0  0  0  0  0  0
    1.3224    5.0664    0.8455 C   0  0  0  0  0  0  0  0  0  0  0  0
    1.3102   -3.1621    0.0860 C   0  0  0  0  0  0  0  0  0  0  0  0
   -1.1961    2.7798   -0.9340 C   0  0  0  0  0  0  0  0  0  0  0  0
    2.0701   -5.7127    1.1913 C   0  0  0  0  0  0  0  0  0  0  0  0
    2.2467   -3.1648    1.1319 C   0  0  0  0  0  0  0  0  0  0  0  0
    2.8064   -4.4568    1.6688 C   0  0  0  0  0  0  0  0  0  0  0  0
   -0.6821   -4.7461    0.2994 C   0  0  0  0  0  0  0  0  0  0  0  0
    1.7790    1.5596   -0.5806 C   0  0  0  0  0  0  0  0  0  0  0  0
    0.9516   -1.9406   -0.5095 C   0  0  0  0  0  0  0  0  0  0  0  0
   -0.3614    3.2932    2.7094 C   0  0  0  0  0  0  0  0  0  0  0  0
    3.2333    3.9139   -0.3015 C   0  0  0  0  0  0  0  0  0  0  0  0
    1.4825   -0.7313   -0.0489 C   0  0  0  0  0  0  0  0  0  0  0  0
   -2.6170    2.3121   -0.7289 C   0  0  0  0  0  0  0  0  0  0  0  0
    2.7471   -1.9473    1.6133 C   0  0  0  0  0  0  0  0  0  0  0  0
    3.0957    1.6247   -1.0490 C   0  0  0  0  0  0  0  0  0  0  0  0
    2.6511   -5.6985   -1.1696 C   0  0  0  0  0  0  0  0  0  0  0  0
   -1.7655   -3.7333    0.0112 C   0  0  0  0  0  0  0  0  0  0  0  0
    3.8212    2.8029   -0.9043 C   0  0  0  0  0  0  0  0  0  0  0  0
    2.3518   -0.7357    1.0433 C   0  0  0  0  0  0  0  0  0  0  0  0
   -2.9328    0.9575   -0.9036 C   0  0  0  0  0  0  0  0  0  0  0  0
   -3.6258    3.2049   -0.3491 C   0  0  0  0  0  0  0  0  0  0  0  0
   -2.1779   -2.8428    1.0143 C   0  0  0  0  0  0  0  0  0  0  0  0
   -2.3601   -3.6592   -1.2562 C   0  0  0  0  0  0  0  0  0  0  0  0
   -4.2369    0.4990   -0.6823 C   0  0  0  0  0  0  0  0  0  0  0  0
   -4.9312    2.7507   -0.1526 C   0  0  0  0  0  0  0  0  0  0  0  0
   -3.6885   -1.7799   -0.5340 C   0  0  0  0  0  0  0  0  0  0  0  0
   -3.1432   -1.8739    0.7481 C   0  0  0  0  0  0  0  0  0  0  0  0
   -3.3244   -2.6881   -1.5280 C   0  0  0  0  0  0  0  0  0  0  0  0
   -5.2392    1.4010   -0.3231 C   0  0  0  0  0  0  0  0  0  0  0  0
    3.5288    0.4694   -3.0822 C   0  0  0  0  0  0  0  0  0  0  0  0
    6.1312    2.5298   -0.4087 C   0  0  0  0  0  0  0  0  0  0  0  0
    2.0520    0.9211    2.7227 C   0  0  0  0  0  0  0  0  0  0  0  0
   -6.8737    0.5770    1.1948 C   0  0  0  0  0  0  0  0  0  0  0  0
  1 21  1  0
  1 25  1  0
  2 28  1  0
  2 43  1  0
  3 31  1  0
  3 44  1  0
  4 32  1  0
  4 45  1  0
  5 37  1  0
  5 39  1  0
  6 42  1  0
  6 46  1  0
  9  7  1  1
  7 12  1  0
  7 23  1  0
 10  8  1  1
  8 17  1  0
  8 29  1  0
  9 11  1  0
  9 16  1  0
 10 15  1  0
 10 20  1  0
 11 13  1  0
 11 21  2  0
 12 14  1  0
 13 14  1  0
 13 24  2  0
 15 18  1  0
 15 22  2  0
 16 26  1  0
 17 19  1  0
 18 19  1  0
 18 27  2  0
 20 30  1  0
 21 28  1  0
 22 25  1  0
 24 31  1  0
 25 32  2  0
 26 33  2  0
 26 34  1  0
 27 32  1  0
 28 31  2  0
 30 35  1  0
 30 36  2  0
 33 37  1  0
 34 38  2  0
 35 40  2  0
 36 41  1  0
 37 42  2  0
 38 42  1  0
 39 40  1  0
 39 41  2  0
M  END
>  <KEY>
TETRANDRINE

>  <NAME>
Tetrandrine

>  <SOURCE>
pubchem-3d:73078

>  <SMILES>
COc1ccc2cc1Oc1ccc(cc1)C[C@H]1c3cc(c(OC)cc3CCN1C)Oc1c(OC)c(OC)cc3c1[C@H](C2)N(C)CC3

>  <FORMULA>
C38H42N2O6

>  <MW>
622.76

>  <HEAVY_ATOMS>
46

>  <ROTATABLE_BONDS>
4

$$$$
