THEAFLAVIN
     RDKit          3D

 41 46  0  0  1  0  0  0  0  0999 V2000
    2.9668   -1.2204   -0.4747 O   0  0  0  0  0  0  0  0  0  0  0  0
   -2.3938    0.0205   -0.6025 O   0  0  0  0  0  0  0  0  0  0  0  0
    2.8129   -0.8421    2.3763 O   0  0  0  0  0  0  0  0  0  0  0  0
   -2.7372    1.4086    1.8919 O   0  0  0  0  0  0  0  0  0  0  0  0
    3.3412    4.9815    0.1810 O   0  0  0  0  0  0  0  0  0  0  0  0
    5.2419    3.0238    0.3340 O   0  0  0  0  0  0  0  0  0  0  0  0
    1.2594   -5.2955    1.5130 O   0  0  0  0  0  0  0  0  0  0  0  0
   -6.9633   -0.5994    0.8792 O   0  0  0  0  0  0  0  0  0  0  0  0
   -0.6303    5.5477   -1.8694 O   0  0  0  0  0  0  0  0  0  0  0  0
    0.7968    5.4562    0.5813 O   0  0  0  0  0  0  0  0  0  0  0  0
    4.4344   -5.4457   -2.0276 O   0  0  0  0  0  0  0  0  0  0  0  0
   -4.5174   -4.1879   -1.0668 O   0  0  0  0  0  0  0  0  0  0  0  0
    1.9019   -0.4885    0.1531 C   0  0  1  0  0  0  0  0  0  0  0  0
    1.6331   -0.9765    1.5826 C   0  0  1  0  0  0  0  0  0  0  0  0
   -2.5895    1.4409   -0.5439 C   0  0  1  0  0  0  0  0  0  0  0  0
    2.2140    0.9960    0.1129 C   0  0  0  0  0  0  0  0  0  0  0  0
   -3.3868    1.8507    0.6989 C   0  0  1  0  0  0  0  0  0  0  0  0
    1.2164   -2.4454    1.5477 C   0  0  0  0  0  0  0  0  0  0  0  0
    1.2082    1.9736   -0.0027 C   0  0  0  0  0  0  0  0  0  0  0  0
   -1.2416    2.0893   -0.5972 C   0  0  0  0  0  0  0  0  0  0  0  0
   -4.7721    1.2101    0.6474 C   0  0  0  0  0  0  0  0  0  0  0  0
    2.0716   -3.2282    0.5882 C   0  0  0  0  0  0  0  0  0  0  0  0
   -0.1811    1.4967   -0.0245 C   0  0  0  0  0  0  0  0  0  0  0  0
   -4.6930   -0.2185    0.1805 C   0  0  0  0  0  0  0  0  0  0  0  0
    2.8782   -2.5836   -0.3583 C   0  0  0  0  0  0  0  0  0  0  0  0
    1.5902    3.3223    0.0046 C   0  0  0  0  0  0  0  0  0  0  0  0
   -3.5306   -0.7234   -0.4159 C   0  0  0  0  0  0  0  0  0  0  0  0
    3.5605    1.3494    0.2181 C   0  0  0  0  0  0  0  0  0  0  0  0
   -1.2096    3.3313   -1.3423 C   0  0  0  0  0  0  0  0  0  0  0  0
    2.9457    3.6740    0.1236 C   0  0  0  0  0  0  0  0  0  0  0  0
    3.9260    2.6896    0.2251 C   0  0  0  0  0  0  0  0  0  0  0  0
    2.0500   -4.6291    0.6234 C   0  0  0  0  0  0  0  0  0  0  0  0
    0.6362    4.4467   -0.0969 C   0  0  0  0  0  0  0  0  0  0  0  0
   -5.8043   -1.0597    0.3261 C   0  0  0  0  0  0  0  0  0  0  0  0
   -0.4252    4.3944   -1.1322 C   0  0  0  0  0  0  0  0  0  0  0  0
    3.6801   -3.3285   -1.2268 C   0  0  0  0  0  0  0  0  0  0  0  0
   -3.4680   -2.0589   -0.8217 C   0  0  0  0  0  0  0  0  0  0  0  0
    2.8411   -5.3716   -0.2540 C   0  0  0  0  0  0  0  0  0  0  0  0
    3.6586   -4.7215   -1.1756 C   0  0  0  0  0  0  0  0  0  0  0  0
   -5.7452   -2.3892   -0.0932 C   0  0  0  0  0  0  0  0  0  0  0  0
   -4.5763   -2.8894   -0.6627 C   0  0  0  0  0  0  0  0  0  0  0  0
  1 13  1  0
  1 25  1  0
  2 15  1  0
  2 27  1  0
 14  3  1  1
 17  4  1  1
  5 30  1  0
  6 31  1  0
  7 32  1  0
  8 34  1  0
  9 35  1  0
 10 33  2  0
 11 39  1  0
 12 41  1  0
 13 14  1  0
 13 16  1  1
 14 18  1  0
 15 17  1  0
 15 20  1  1
 16 19  2  0
 16 28  1  0
 17 21  1  0
 18 22  1  0
 19 23  1  0
 19 26  1  0
 20 23  2  0
 20 29  1  0
 21 24  1  0
 22 25  1  0
 22 32  2  0
 24 27  1  0
 24 34  2  0
 25 36  2  0
 26 30  2  0
 26 33  1  0
 27 37  2  0
 28 31  2  0
 29 35  2  0
 30 31  1  0
 32 38  1  0
 33 35  1  0
 34 40  1  0
 36 39  1  0
 37 41  1  0
 38 39  2  0
 40 41  2  0
M  END
>  <KEY>
THEAFLAVIN

>  <NAME>
Theaflavin

>  <SOURCE>
pubchem-3d:135403798

>  <SMILES>
O=c1c(O)cc([C@H]2Oc3cc(O)cc(O)c3C[C@H]2O)cc2c([C@H]3Oc4cc(O)cc(O)c4C[C@H]3O)cc(O)c(O)c12

>  <FORMULA>
C29H24O12

>  <MW>
564.50

>  <HEAVY_ATOMS>
41

>  <ROTATABLE_BONDS>
2

$$$$
