THYMOL
     RDKit          3D

 11 11  0  0  0  0  0  0  0  0999 V2000
    0.0630    0.0060    0.6020 C   0  0  0  0  0  0  0  0  0  0  0  0
    1.3110   -0.0170    0.0100 C   0  0  0  0  0  0  0  0  0  0  0  0
    1.4250   -0.0200   -1.3670 C   0  0  0  0  0  0  0  0  0  0  0  0
    0.2900    0.0000   -2.1560 C   0  0  0  0  0  0  0  0  0  0  0  0
   -0.9600    0.0230   -1.5700 C   0  0  0  0  0  0  0  0  0  0  0  0
   -1.0760    0.0220   -0.1870 C   0  0  0  0  0  0  0  0  0  0  0  0
   -0.0590    0.0100    2.1040 C   0  0  0  0  0  0  0  0  0  0  0  0
    0.4170   -0.0030   -3.6580 C   0  0  0  0  0  0  0  0  0  0  0  0
   -2.3050    0.0450    0.3910 O   0  0  0  0  0  0  0  0  0  0  0  0
    0.5930   -1.2510    2.6720 C   0  0  0  0  0  0  0  0  0  0  0  0
    0.6410    1.2460    2.6700 C   0  0  0  0  0  0  0  0  0  0  0  0
  1  2  1  0
  1  6  2  0
  1  7  1  0
  2  3  2  0
  3  4  1  0
  4  5  2  0
  4  8  1  0
  5  6  1  0
  6  9  1  0
  7 10  1  0
  7 11  1  0
M  END
>  <KEY>
THYMOL

>  <NAME>
Thymol

>  <SOURCE>
rcsb-ccd:IPB

>  <SMILES>
Cc1ccc(C(C)C)c(O)c1

>  <FORMULA>
C10H14O

>  <MW>
150.22

>  <HEAVY_ATOMS>
11

>  <ROTATABLE_BONDS>
1

$$$$
