THYMOQUINONE
     RDKit          3D

 12 12  0  0  0  0  0  0  0  0999 V2000
    1.9770   -0.5100   -0.0020 C   0  0  0  0  0  0  0  0  0  0  0  0
    1.0090   -1.4370   -0.0020 C   0  0  0  0  0  0  0  0  0  0  0  0
   -0.4090   -1.0240   -0.0010 C   0  0  0  0  0  0  0  0  0  0  0  0
   -0.7610    0.4100    0.0000 C   0  0  0  0  0  0  0  0  0  0  0  0
    0.2060    1.3370    0.0010 C   0  0  0  0  0  0  0  0  0  0  0  0
    1.6250    0.9250   -0.0010 C   0  0  0  0  0  0  0  0  0  0  0  0
    3.4240   -0.9300    0.0030 C   0  0  0  0  0  0  0  0  0  0  0  0
   -2.2080    0.8310    0.0010 C   0  0  0  0  0  0  0  0  0  0  0  0
   -2.9000    0.2820   -1.2490 C   0  0  0  0  0  0  0  0  0  0  0  0
    2.5010    1.7650   -0.0010 O   0  0  0  0  0  0  0  0  0  0  0  0
   -1.2860   -1.8650   -0.0010 O   0  0  0  0  0  0  0  0  0  0  0  0
   -2.8990    0.2800    1.2500 C   0  0  0  0  0  0  0  0  0  0  0  0
  1  2  2  0
  1  6  1  0
  1  7  1  0
  2  3  1  0
  3  4  1  0
  3 11  2  0
  4  5  2  0
  4  8  1  0
  5  6  1  0
  6 10  2  0
  8  9  1  0
  8 12  1  0
M  END
>  <KEY>
THYMOQUINONE

>  <NAME>
Thymoquinone

>  <SOURCE>
rcsb-ccd:IMW

>  <SMILES>
CC1=CC(=O)C(C(C)C)=CC1=O

>  <FORMULA>
C10H12O2

>  <MW>
164.20

>  <HEAVY_ATOMS>
12

>  <ROTATABLE_BONDS>
1

$$$$
