TRIPTOLIDE
     RDKit          3D

 26 32  0  0  1  0  0  0  0  0999 V2000
    5.4000    1.0870    0.0120 C   0  0  0  0  0  0  0  0  0  0  0  0
    4.7330   -0.0300    0.8180 C   0  0  0  0  0  0  0  0  0  0  0  0
    5.0250    0.1710    2.3060 C   0  0  0  0  0  0  0  0  0  0  0  0
    3.2220    0.0060    0.5840 C   0  0  2  0  0  0  0  0  0  0  0  0
    2.4310   -1.1130    1.2540 C   0  0  2  0  0  0  0  0  0  0  0  0
    1.0880   -1.5530    0.6660 C   0  0  1  0  0  0  0  0  0  0  0  0
    0.5340   -0.7770   -0.5320 C   0  0  1  0  0  0  0  0  0  0  0  0
   -0.9890   -0.6080   -0.5750 C   0  0  1  0  0  0  0  0  0  0  0  0
   -1.6670   -1.8420    0.0180 C   0  0  0  0  0  0  0  0  0  0  0  0
   -3.1830   -1.7460   -0.1920 C   0  0  0  0  0  0  0  0  0  0  0  0
   -3.6500   -0.3850    0.2680 C   0  0  0  0  0  0  0  0  0  0  0  0
   -2.8360    0.6550    0.4650 C   0  0  0  0  0  0  0  0  0  0  0  0
   -1.3450    0.6370    0.2460 C   0  0  2  0  0  0  0  0  0  0  0  0
   -0.8670    1.8960   -0.4530 C   0  0  0  0  0  0  0  0  0  0  0  0
    0.5900    1.8090   -0.8880 C   0  0  1  0  0  0  0  0  0  0  0  0
    1.3020    0.4670   -0.9800 C   0  0  1  0  0  0  0  0  0  0  0  0
    2.8100    0.4260   -0.8140 C   0  0  2  0  0  0  0  0  0  0  0  0
   -3.6870    1.8100    0.9150 C   0  0  0  0  0  0  0  0  0  0  0  0
   -5.0250    0.0170    0.5680 C   0  0  0  0  0  0  0  0  0  0  0  0
   -1.4450   -0.4160   -2.0230 C   0  0  0  0  0  0  0  0  0  0  0  0
    2.4260    0.2250    1.7270 O   0  0  0  0  0  0  0  0  0  0  0  0
    1.1030   -2.0630   -0.6730 O   0  0  0  0  0  0  0  0  0  0  0  0
    3.3310   -0.5140   -1.7560 O   0  0  0  0  0  0  0  0  0  0  0  0
    0.8240    1.1550   -2.1440 O   0  0  0  0  0  0  0  0  0  0  0  0
   -5.0540    1.3090    0.9490 O   0  0  0  0  0  0  0  0  0  0  0  0
   -5.9970   -0.7080    0.4860 O   0  0  0  0  0  0  0  0  0  0  0  0
  1  2  1  0
  4  2  1  1
  3  2  1  0
  4 17  1  0
  4 21  1  0
  4  5  1  0
  5  6  1  0
  6  7  1  0
  6 22  1  6
  7 22  1  6
  7  8  1  0
  8 20  1  6
  8  9  1  0
  9 10  1  0
 11 10  1  0
 11 19  1  0
 12 11  2  0
 13  8  1  0
 13 12  1  0
 13 14  1  6
 15 14  1  1
 16 15  1  0
 16  7  1  0
 17 16  1  0
 18 12  1  0
 18 25  1  0
 19 26  2  0
  5 21  1  1
 17 23  1  6
 16 24  1  6
 24 15  1  0
 25 19  1  0
M  END
>  <KEY>
TRIPTOLIDE

>  <NAME>
Triptolide

>  <SOURCE>
rcsb-ccd:TLI

>  <SMILES>
CC(C)[C@]12O[C@H]1[C@@H]1O[C@]13[C@]1(O[C@H]1C[C@H]1C4=C(CC[C@@]13C)C(=O)OC4)[C@@H]2O

>  <FORMULA>
C20H24O6

>  <MW>
360.41

>  <HEAVY_ATOMS>
26

>  <ROTATABLE_BONDS>
1

$$$$
