UMBELLIFERONE
     RDKit          3D

 12 13  0  0  0  0  0  0  0  0999 V2000
   -2.8007    0.9187    2.0225 O   0  0  0  0  0  0  0  0  0  0  0  0
   -2.0290    0.3827    1.2472 C   0  0  0  0  0  0  0  0  0  0  0  0
   -2.4440   -0.7747    0.5560 C   0  0  0  0  0  0  0  0  0  0  0  0
   -1.5955   -1.3830   -0.3124 C   0  0  0  0  0  0  0  0  0  0  0  0
   -0.2634   -0.8044   -0.4986 C   0  0  0  0  0  0  0  0  0  0  0  0
   -0.8084    0.9117    1.0679 O   0  0  0  0  0  0  0  0  0  0  0  0
    0.0845    0.3530    0.2239 C   0  0  0  0  0  0  0  0  0  0  0  0
    1.3437    0.9086    0.0539 C   0  0  0  0  0  0  0  0  0  0  0  0
    2.2431    0.3224   -0.8211 C   0  0  0  0  0  0  0  0  0  0  0  0
    3.4750    0.8668   -0.9857 O   0  0  0  0  0  0  0  0  0  0  0  0
    1.8931   -0.8235   -1.5338 C   0  0  0  0  0  0  0  0  0  0  0  0
    0.6579   -1.3840   -1.3788 C   0  0  0  0  0  0  0  0  0  0  0  0
  1  2  2  0
  2  6  1  0
  3  2  1  0
  3  4  2  0
  4  5  1  0
  5  7  2  0
  5 12  1  0
  6  7  1  0
  7  8  1  0
  8  9  2  0
  9 10  1  0
 11  9  1  0
 12 11  2  0
M  END
>  <KEY>
UMBELLIFERONE

>  <NAME>
Umbelliferone

>  <SOURCE>
rcsb-ccd:07L

>  <SMILES>
O=c1ccc2ccc(O)cc2o1

>  <FORMULA>
C9H6O3

>  <MW>
162.14

>  <HEAVY_ATOMS>
12

>  <ROTATABLE_BONDS>
0

$$$$
