URSOLIC_ACID
     RDKit          3D

 33 37  0  0  1  0  0  0  0  0999 V2000
    3.8440    3.1980   -0.4620 O   0  0  0  0  0  0  0  0  0  0  0  0
    3.3920    1.9840   -0.8150 C   0  0  0  0  0  0  0  0  0  0  0  0
    2.7340    1.8530   -1.8200 O   0  0  0  0  0  0  0  0  0  0  0  0
    3.7070    0.7810    0.0450 C   0  0  2  0  0  0  0  0  0  0  0  0
    3.1400    0.9890    1.4450 C   0  0  0  0  0  0  0  0  0  0  0  0
    1.6450    1.3010    1.3860 C   0  0  0  0  0  0  0  0  0  0  0  0
    0.8600    0.2180    0.6620 C   0  0  1  0  0  0  0  0  0  0  0  0
    0.7120   -0.9580    1.6400 C   0  0  0  0  0  0  0  0  0  0  0  0
   -0.5540    0.7100    0.3140 C   0  0  1  0  0  0  0  0  0  0  0  0
   -0.3870    1.9880   -0.5280 C   0  0  0  0  0  0  0  0  0  0  0  0
    5.2270    0.6330    0.1010 C   0  0  0  0  0  0  0  0  0  0  0  0
    5.6170   -0.6340    0.8590 C   0  0  0  0  0  0  0  0  0  0  0  0
    5.0190   -1.8460    0.1410 C   0  0  1  0  0  0  0  0  0  0  0  0
    5.4310   -3.1260    0.8680 C   0  0  0  0  0  0  0  0  0  0  0  0
    3.4900   -1.7230    0.1540 C   0  0  2  0  0  0  0  0  0  0  0  0
    2.8960   -2.9560   -0.5320 C   0  0  0  0  0  0  0  0  0  0  0  0
    3.0690   -0.4570   -0.5830 C   0  0  1  0  0  0  0  0  0  0  0  0
    1.5610   -0.3020   -0.5550 C   0  0  0  0  0  0  0  0  0  0  0  0
    0.9250   -0.6620   -1.6430 C   0  0  0  0  0  0  0  0  0  0  0  0
   -0.5530   -0.5110   -1.8550 C   0  0  0  0  0  0  0  0  0  0  0  0
   -1.2550   -0.3620   -0.5060 C   0  0  2  0  0  0  0  0  0  0  0  0
   -2.7620   -0.1660   -0.6850 C   0  0  1  0  0  0  0  0  0  0  0  0
   -3.0650    0.9510   -1.6760 C   0  0  0  0  0  0  0  0  0  0  0  0
   -3.3380   -1.4760   -1.2540 C   0  0  0  0  0  0  0  0  0  0  0  0
   -4.8560   -1.3650   -1.3580 C   0  0  0  0  0  0  0  0  0  0  0  0
   -5.4650   -1.1790    0.0250 C   0  0  2  0  0  0  0  0  0  0  0  0
   -6.8830   -1.0210   -0.0980 O   0  0  0  0  0  0  0  0  0  0  0  0
   -4.8890    0.0380    0.7500 C   0  0  0  0  0  0  0  0  0  0  0  0
   -5.5450    1.3160    0.2280 C   0  0  0  0  0  0  0  0  0  0  0  0
   -5.3020   -0.1060    2.2360 C   0  0  0  0  0  0  0  0  0  0  0  0
   -3.3810    0.0810    0.6840 C   0  0  2  0  0  0  0  0  0  0  0  0
   -2.7900    1.3570    1.2850 C   0  0  0  0  0  0  0  0  0  0  0  0
   -1.3090    1.0740    1.5850 C   0  0  0  0  0  0  0  0  0  0  0  0
  1  2  1  0
  4  2  1  6
  3  2  2  0
  4  5  1  0
  4 11  1  0
  6  7  1  0
  6  5  1  0
  7  8  1  1
  9 21  1  0
  9  7  1  0
  9 33  1  0
  9 10  1  6
 12 11  1  0
 12 13  1  0
 13 14  1  1
 15 13  1  0
 15 16  1  6
 17  4  1  0
 17 15  1  0
 17 18  1  1
 18  7  1  0
 19 18  2  0
 20 19  1  0
 21 20  1  6
 22 21  1  0
 22 24  1  0
 22 31  1  0
 22 23  1  6
 25 24  1  0
 25 26  1  0
 26 27  1  6
 28 26  1  0
 28 30  1  0
 29 28  1  0
 31 28  1  0
 31 32  1  6
 32 33  1  0
M  END
>  <KEY>
URSOLIC_ACID

>  <NAME>
Ursolic acid

>  <SOURCE>
rcsb-ccd:6Q5

>  <SMILES>
C[C@H]1[C@H](C)CC[C@]2(C(=O)O)CC[C@]3(C)C(=CC[C@@H]4[C@@]5(C)CC[C@H](O)C(C)(C)[C@@H]5CC[C@]43C)[C@H]12

>  <FORMULA>
C30H48O3

>  <MW>
456.71

>  <HEAVY_ATOMS>
33

>  <ROTATABLE_BONDS>
1

$$$$
