VINBLASTINE
     RDKit          3D

 59 67  0  0  1  0  0  0  0  0999 V2000
    5.3200    3.3750    3.0930 C   0  0  0  0  0  0  0  0  0  0  0  0
    4.2530    3.2080    2.0090 C   0  0  0  0  0  0  0  0  0  0  0  0
    4.9160    3.2540    0.6300 C   0  0  1  0  0  0  0  0  0  0  0  0
    5.5670    4.5270    0.4950 O   0  0  0  0  0  0  0  0  0  0  0  0
    5.9660    2.1570    0.5280 C   0  0  0  0  0  0  0  0  0  0  0  0
    3.8180    3.1760   -0.4560 C   0  0  0  0  0  0  0  0  0  0  0  0
    3.4910    1.7400   -0.6170 C   0  0  1  0  0  0  0  0  0  0  0  0
    2.4540    1.2140   -1.6240 C   0  0  0  0  0  0  0  0  0  0  0  0
    4.7560    0.9870   -1.0560 C   0  0  0  0  0  0  0  0  0  0  0  0
    5.4700    0.8130    0.2270 N   0  0  0  0  0  0  0  0  0  0  0  0
    6.6280    0.0410   -0.3630 C   0  0  0  0  0  0  0  0  0  0  0  0
    5.7420   -1.2030   -0.8150 C   0  0  0  0  0  0  0  0  0  0  0  0
    4.4900   -1.1600    0.0580 C   0  0  0  0  0  0  0  0  0  0  0  0
    4.5510   -1.6600    1.4350 C   0  0  0  0  0  0  0  0  0  0  0  0
    5.5900   -2.2370    2.1700 C   0  0  0  0  0  0  0  0  0  0  0  0
    5.2900   -2.6300    3.4530 C   0  0  0  0  0  0  0  0  0  0  0  0
    4.0260   -2.4670    3.9960 C   0  0  0  0  0  0  0  0  0  0  0  0
    2.9880   -1.8820    3.2900 C   0  0  0  0  0  0  0  0  0  0  0  0
    3.2730   -1.4590    1.9930 C   0  0  0  0  0  0  0  0  0  0  0  0
    2.5350   -0.8270    1.0460 N   0  0  0  0  0  0  0  0  0  0  0  0
    3.2250   -0.7590   -0.1660 C   0  0  0  0  0  0  0  0  0  0  0  0
    2.4430   -0.3390   -1.3920 C   0  0  2  0  0  0  0  0  0  0  0  0
    2.8620   -1.0900   -2.6320 C   0  0  0  0  0  0  0  0  0  0  0  0
    3.1920   -0.4840   -3.6240 O   0  0  0  0  0  0  0  0  0  0  0  0
    2.8690   -2.4320   -2.6330 O   0  0  0  0  0  0  0  0  0  0  0  0
    3.2730   -3.1560   -3.8260 C   0  0  0  0  0  0  0  0  0  0  0  0
    1.0040   -0.7290   -1.1710 C   0  0  0  0  0  0  0  0  0  0  0  0
   -0.0020    0.1780   -1.4800 C   0  0  0  0  0  0  0  0  0  0  0  0
   -1.3040   -0.2270   -1.2600 C   0  0  0  0  0  0  0  0  0  0  0  0
   -2.5950    0.5000   -1.5240 C   0  0  1  0  0  0  0  0  0  0  0  0
   -2.7270    1.7880   -0.7500 C   0  0  1  0  0  0  0  0  0  0  0  0
   -2.5980    0.9440   -3.0040 C   0  0  0  0  0  0  0  0  0  0  0  0
   -2.1150    2.4130   -2.9300 C   0  0  0  0  0  0  0  0  0  0  0  0
   -2.6980    2.9240   -1.6580 N   0  0  0  0  0  0  0  0  0  0  0  0
   -4.0740    3.2840   -2.0060 C   0  0  0  0  0  0  0  0  0  0  0  0
   -4.8840    3.5690   -0.7760 C   0  0  0  0  0  0  0  0  0  0  0  0
   -4.6640    2.9340    0.3360 C   0  0  0  0  0  0  0  0  0  0  0  0
   -3.5850    1.8980    0.4560 C   0  0  2  0  0  0  0  0  0  0  0  0
   -2.6820    2.3180    1.6180 C   0  0  0  0  0  0  0  0  0  0  0  0
   -3.5220    2.4660    2.8890 C   0  0  0  0  0  0  0  0  0  0  0  0
   -4.2200    0.5600    0.8420 C   0  0  1  0  0  0  0  0  0  0  0  0
   -5.2680    0.7760    1.8240 O   0  0  0  0  0  0  0  0  0  0  0  0
   -5.5690   -0.1880    2.7080 C   0  0  0  0  0  0  0  0  0  0  0  0
   -6.6560    0.0370    3.7270 C   0  0  0  0  0  0  0  0  0  0  0  0
   -4.9670   -1.2350    2.6880 O   0  0  0  0  0  0  0  0  0  0  0  0
   -4.8170   -0.0580   -0.4260 C   0  0  1  0  0  0  0  0  0  0  0  0
   -5.7110   -1.2140   -0.0590 C   0  0  0  0  0  0  0  0  0  0  0  0
   -6.8830   -1.1890   -0.3550 O   0  0  0  0  0  0  0  0  0  0  0  0
   -5.2070   -2.2710    0.5970 O   0  0  0  0  0  0  0  0  0  0  0  0
   -6.0690   -3.3840    0.9500 C   0  0  0  0  0  0  0  0  0  0  0  0
   -5.5730    0.9300   -1.1300 O   0  0  0  0  0  0  0  0  0  0  0  0
   -3.6750   -0.5530   -1.3080 C   0  0  2  0  0  0  0  0  0  0  0  0
   -2.9800   -1.6380   -0.5660 N   0  0  0  0  0  0  0  0  0  0  0  0
   -3.3480   -2.9000   -1.2200 C   0  0  0  0  0  0  0  0  0  0  0  0
   -1.6130   -1.4860   -0.7340 C   0  0  0  0  0  0  0  0  0  0  0  0
   -0.5960   -2.3940   -0.4320 C   0  0  0  0  0  0  0  0  0  0  0  0
    0.7120   -1.9860   -0.6680 C   0  0  0  0  0  0  0  0  0  0  0  0
    1.7320   -2.8390   -0.3890 O   0  0  0  0  0  0  0  0  0  0  0  0
    1.1410   -4.0370    0.1190 C   0  0  0  0  0  0  0  0  0  0  0  0
  1  2  1  0
  2  3  1  0
  3  4  1  6
  3  5  1  0
  3  6  1  0
  5 10  1  0
  7  6  1  6
  7  8  1  0
  7  9  1  0
  8 22  1  0
  9 10  1  0
 10 11  1  0
 11 12  1  0
 12 13  1  0
 13 14  1  0
 13 21  2  0
 14 15  2  0
 14 19  1  0
 15 16  1  0
 16 17  2  0
 17 18  1  0
 18 19  2  0
 19 20  1  0
 20 21  1  0
 21 22  1  0
 22 23  1  6
 22 27  1  0
 23 24  2  0
 23 25  1  0
 25 26  1  0
 27 28  2  0
 27 57  1  0
 28 29  1  0
 29 30  1  0
 29 55  2  0
 30 31  1  0
 30 32  1  6
 30 52  1  0
 31 34  1  6
 31 38  1  0
 32 33  1  0
 33 34  1  0
 34 35  1  0
 35 36  1  0
 36 37  2  0
 37 38  1  0
 38 39  1  1
 38 41  1  0
 39 40  1  0
 41 42  1  1
 41 46  1  0
 42 43  1  0
 43 44  1  0
 43 45  2  0
 46 47  1  0
 46 51  1  6
 46 52  1  0
 47 48  2  0
 47 49  1  0
 49 50  1  0
 52 53  1  1
 53 54  1  0
 53 55  1  0
 55 56  1  0
 56 57  2  0
 57 58  1  0
 58 59  1  0
M  END
>  <KEY>
VINBLASTINE

>  <NAME>
Vinblastine

>  <SOURCE>
rcsb-ccd:VLB

>  <SMILES>
CC[C@]1(O)C[C@@H]2CN(CCc3c([nH]c4ccccc34)[C@@](C(=O)OC)(c3cc4c(cc3OC)N(C)[C@H]3[C@@](O)(C(=O)OC)[C@H](OC(C)=O)[C@]5(CC)C=CCN6CC[C@]43[C@@H]65)C2)C1

>  <FORMULA>
C46H58N4O9

>  <MW>
810.99

>  <HEAVY_ATOMS>
59

>  <ROTATABLE_BONDS>
7

$$$$
