VINCRISTINE
     RDKit          3D

 60 68  0  0  0  0  0  0  0  0999 V2000
   -8.6526   -3.5379   -1.0568 C   0  0  0  0  0  0  0  0  0  0  0  0
   -7.1298   -3.6164   -1.0663 C   0  0  0  0  0  0  0  0  0  0  0  0
   -6.4211   -2.3362   -1.5613 C   0  0  2  0  0  0  0  0  0  0  0  0
   -4.8886   -2.5641   -1.5909 C   0  0  0  0  0  0  0  0  0  0  0  0
   -4.0501   -1.2499   -1.7222 C   0  0  2  0  0  0  0  0  0  0  0  0
   -3.0720   -1.1623   -0.4973 C   0  0  0  0  0  0  0  0  0  0  0  0
   -2.2971    0.1522   -0.0662 C   0  0  1  0  0  0  0  0  0  0  0  0
   -3.1031    0.8910    1.0662 C   0  0  0  0  0  0  0  0  0  0  0  0
   -4.2240    1.7359    1.1203 C   0  0  0  0  0  0  0  0  0  0  0  0
   -5.1069    2.2580    0.0153 C   0  0  0  0  0  0  0  0  0  0  0  0
   -6.2709    1.3049   -0.3351 C   0  0  0  0  0  0  0  0  0  0  0  0
   -5.8096   -0.0140   -0.7400 N   0  0  0  0  0  0  0  0  0  0  0  0
   -4.9702   -0.0505   -1.9144 C   0  0  0  0  0  0  0  0  0  0  0  0
   -6.8008   -1.0880   -0.6952 C   0  0  0  0  0  0  0  0  0  0  0  0
   -4.4695    2.0503    2.5069 C   0  0  0  0  0  0  0  0  0  0  0  0
   -5.4238    2.8418    3.1841 C   0  0  0  0  0  0  0  0  0  0  0  0
   -5.3901    2.9275    4.5814 C   0  0  0  0  0  0  0  0  0  0  0  0
   -4.4277    2.2342    5.3092 C   0  0  0  0  0  0  0  0  0  0  0  0
   -3.4780    1.4387    4.6637 C   0  0  0  0  0  0  0  0  0  0  0  0
   -3.5299    1.3722    3.2660 C   0  0  0  0  0  0  0  0  0  0  0  0
   -2.7496    0.6702    2.3892 N   0  0  0  0  0  0  0  0  0  0  0  0
   -0.8411   -0.2023    0.4925 C   0  0  0  0  0  0  0  0  0  0  0  0
   -0.5443   -1.3752    1.2429 C   0  0  0  0  0  0  0  0  0  0  0  0
    0.7677   -1.6464    1.6714 C   0  0  0  0  0  0  0  0  0  0  0  0
    1.7813   -0.7443    1.3950 C   0  0  0  0  0  0  0  0  0  0  0  0
    1.5074    0.4304    0.7177 C   0  0  0  0  0  0  0  0  0  0  0  0
    0.2165    0.7144    0.2784 C   0  0  0  0  0  0  0  0  0  0  0  0
    2.7825    1.2151    0.4417 C   0  0  2  0  0  0  0  0  0  0  0  0
    2.6026    2.7268    0.6557 C   0  0  0  0  0  0  0  0  0  0  0  0
    3.0038    3.3633   -0.6611 C   0  0  0  0  0  0  0  0  0  0  0  0
    2.7570    2.3268   -1.6617 N   0  0  0  0  0  0  0  0  0  0  0  0
    3.1519    1.0218   -1.0670 C   0  0  1  0  0  0  0  0  0  0  0  0
    4.5789    0.4016   -1.4691 C   0  0  1  0  0  0  0  0  0  0  0  0
    5.4138    1.4182   -2.2596 C   0  0  0  0  0  0  0  0  0  0  0  0
    4.8469    2.4132   -2.9557 C   0  0  0  0  0  0  0  0  0  0  0  0
    3.3712    2.6410   -2.9432 C   0  0  0  0  0  0  0  0  0  0  0  0
    5.3713   -0.1924   -0.2361 C   0  0  2  0  0  0  0  0  0  0  0  0
    5.2117    0.6754    1.0242 C   0  0  1  0  0  0  0  0  0  0  0  0
    3.7400    0.5639    1.4827 C   0  0  2  0  0  0  0  0  0  0  0  0
    3.1512   -0.8068    1.7303 N   0  0  0  0  0  0  0  0  0  0  0  0
    3.7108   -1.8523    2.4387 C   0  0  0  0  0  0  0  0  0  0  0  0
    3.1676   -2.8922    2.7948 O   0  0  0  0  0  0  0  0  0  0  0  0
    6.1797    0.4437    2.2007 C   0  0  0  0  0  0  0  0  0  0  0  0
    5.8580    0.1091    3.3328 O   0  0  0  0  0  0  0  0  0  0  0  0
    7.4612    0.7763    1.8438 O   0  0  0  0  0  0  0  0  0  0  0  0
    8.4112    0.6432    2.9042 C   0  0  0  0  0  0  0  0  0  0  0  0
    5.5010    2.0600    0.6916 O   0  0  0  0  0  0  0  0  0  0  0  0
    6.7682   -0.3497   -0.6093 O   0  0  0  0  0  0  0  0  0  0  0  0
    7.4250   -1.4123   -0.0653 C   0  0  0  0  0  0  0  0  0  0  0  0
    6.9490   -2.1659    0.7702 O   0  0  0  0  0  0  0  0  0  0  0  0
    8.8159   -1.5002   -0.6099 C   0  0  0  0  0  0  0  0  0  0  0  0
    4.2751   -0.7720   -2.4837 C   0  0  0  0  0  0  0  0  0  0  0  0
    5.4593   -1.5408   -3.0611 C   0  0  0  0  0  0  0  0  0  0  0  0
   -1.6065   -2.1622    1.6082 O   0  0  0  0  0  0  0  0  0  0  0  0
   -1.3297   -3.4751    2.0845 C   0  0  0  0  0  0  0  0  0  0  0  0
   -2.0793    1.0770   -1.3029 C   0  0  0  0  0  0  0  0  0  0  0  0
   -2.2071    2.2962   -1.3388 O   0  0  0  0  0  0  0  0  0  0  0  0
   -1.5866    0.3523   -2.3607 O   0  0  0  0  0  0  0  0  0  0  0  0
   -1.2369    1.1397   -3.4988 C   0  0  0  0  0  0  0  0  0  0  0  0
   -6.8248   -2.1327   -2.9307 O   0  0  0  0  0  0  0  0  0  0  0  0
  1  2  1  0
  2  3  1  0
  3  4  1  0
  5  4  1  1
  5  6  1  0
  6  7  1  0
  7  8  1  0
  8  9  2  0
  9 10  1  0
 10 11  1  0
 11 12  1  0
 12 13  1  0
 12 14  1  0
  9 15  1  0
 15 16  2  0
 16 17  1  0
 17 18  2  0
 18 19  1  0
 19 20  2  0
 20 21  1  0
  7 22  1  0
 22 23  1  0
 23 24  2  0
 24 25  1  0
 25 26  2  0
 26 27  1  0
 26 28  1  0
 28 29  1  1
 29 30  1  0
 30 31  1  0
 32 31  1  6
 32 33  1  0
 33 34  1  0
 34 35  2  0
 35 36  1  0
 33 37  1  0
 37 38  1  0
 38 39  1  0
 39 40  1  6
 40 41  1  0
 41 42  2  0
 38 43  1  0
 43 44  2  0
 43 45  1  0
 45 46  1  0
 38 47  1  6
 37 48  1  6
 48 49  1  0
 49 50  2  0
 49 51  1  0
 33 52  1  6
 52 53  1  0
 23 54  1  0
 54 55  1  0
  7 56  1  6
 56 57  2  0
 56 58  1  0
 58 59  1  0
  3 60  1  6
 14  3  1  0
 13  5  1  0
 21  8  1  0
 20 15  1  0
 27 22  2  0
 40 25  1  0
 32 28  1  0
 39 28  1  0
 36 31  1  0
M  END
>  <KEY>
VINCRISTINE

>  <NAME>
Vincristine

>  <SOURCE>
rdkit-etkdg:5978

>  <SMILES>
CC[C@]1(O)C[C@H]2CN(CCc3c([nH]c4ccccc34)[C@@](C(=O)OC)(c3cc4c(cc3OC)N(C=O)[C@H]3[C@@](O)(C(=O)OC)[C@H](OC(C)=O)[C@]5(CC)C=CCN6CC[C@]43[C@@H]65)C2)C1

>  <FORMULA>
C46H56N4O10

>  <MW>
824.97

>  <HEAVY_ATOMS>
60

>  <ROTATABLE_BONDS>
8

$$$$
