VITEXIN
     RDKit          3D

 31 34  0  0  1  0  0  0  0  0999 V2000
   -0.5168   -1.9413    0.9466 O   0  0  0  0  0  0  0  0  0  0  0  0
   -1.1760   -1.7872   -2.6605 O   0  0  0  0  0  0  0  0  0  0  0  0
    1.5924   -2.7587   -2.4924 O   0  0  0  0  0  0  0  0  0  0  0  0
    1.9654   -4.3991   -0.1525 O   0  0  0  0  0  0  0  0  0  0  0  0
   -0.1304    0.7274   -0.0241 O   0  0  0  0  0  0  0  0  0  0  0  0
   -0.0862   -3.2048    3.3471 O   0  0  0  0  0  0  0  0  0  0  0  0
   -4.1309   -1.8413   -0.2303 O   0  0  0  0  0  0  0  0  0  0  0  0
   -4.4742    2.8638    0.2290 O   0  0  0  0  0  0  0  0  0  0  0  0
   -2.2215    4.2052    0.3381 O   0  0  0  0  0  0  0  0  0  0  0  0
    6.1300    1.6132    0.0140 O   0  0  0  0  0  0  0  0  0  0  0  0
   -0.3654   -1.7618   -1.4859 C   0  0  2  0  0  0  0  0  0  0  0  0
    0.5794   -2.9664   -1.5064 C   0  0  2  0  0  0  0  0  0  0  0  0
   -1.2831   -1.8038   -0.2543 C   0  0  2  0  0  0  0  0  0  0  0  0
    1.2684   -3.1559   -0.1552 C   0  0  1  0  0  0  0  0  0  0  0  0
    0.2448   -3.1489    0.9818 C   0  0  1  0  0  0  0  0  0  0  0  0
   -2.1173   -0.5442   -0.1259 C   0  0  0  0  0  0  0  0  0  0  0  0
    0.9174   -3.2267    2.3485 C   0  0  0  0  0  0  0  0  0  0  0  0
   -1.5021    0.7026   -0.0125 C   0  0  0  0  0  0  0  0  0  0  0  0
   -3.5096   -0.6336   -0.1198 C   0  0  0  0  0  0  0  0  0  0  0  0
   -2.2782    1.8542    0.1069 C   0  0  0  0  0  0  0  0  0  0  0  0
   -4.2852    0.5205   -0.0005 C   0  0  0  0  0  0  0  0  0  0  0  0
   -3.6723    1.7690    0.1136 C   0  0  0  0  0  0  0  0  0  0  0  0
   -1.6034    3.1556    0.2269 C   0  0  0  0  0  0  0  0  0  0  0  0
    0.5089    1.9534    0.0802 C   0  0  0  0  0  0  0  0  0  0  0  0
   -0.1268    3.1290    0.2068 C   0  0  0  0  0  0  0  0  0  0  0  0
    1.9829    1.8647    0.0633 C   0  0  0  0  0  0  0  0  0  0  0  0
    2.7444    2.9238   -0.4367 C   0  0  0  0  0  0  0  0  0  0  0  0
    2.6225    0.7204    0.5468 C   0  0  0  0  0  0  0  0  0  0  0  0
    4.1366    2.8393   -0.4532 C   0  0  0  0  0  0  0  0  0  0  0  0
    4.0147    0.6361    0.5304 C   0  0  0  0  0  0  0  0  0  0  0  0
    4.7717    1.6955    0.0304 C   0  0  0  0  0  0  0  0  0  0  0  0
  1 13  1  0
  1 15  1  0
 11  2  1  6
 12  3  1  6
 14  4  1  6
  5 18  1  0
  5 24  1  0
  6 17  1  0
  7 19  1  0
  8 22  1  0
  9 23  2  0
 10 31  1  0
 11 12  1  0
 11 13  1  0
 12 14  1  0
 13 16  1  1
 14 15  1  0
 15 17  1  1
 16 18  2  0
 16 19  1  0
 18 20  1  0
 19 21  2  0
 20 22  2  0
 20 23  1  0
 21 22  1  0
 23 25  1  0
 24 25  2  0
 24 26  1  0
 26 27  1  0
 26 28  2  0
 27 29  2  0
 28 30  1  0
 29 31  1  0
 30 31  2  0
M  END
>  <KEY>
VITEXIN

>  <NAME>
Vitexin

>  <SOURCE>
pubchem-3d:5280441

>  <SMILES>
O=c1cc(-c2ccc(O)cc2)oc2c([C@@H]3O[C@H](CO)[C@@H](O)[C@H](O)[C@H]3O)c(O)cc(O)c12

>  <FORMULA>
C21H20O10

>  <MW>
432.38

>  <HEAVY_ATOMS>
31

>  <ROTATABLE_BONDS>
3

$$$$
