WEDELOLACTONE
     RDKit          3D

 23 26  0  0  0  0  0  0  0  0999 V2000
    1.0283    1.1298    0.3924 O   0  0  0  0  0  0  0  0  0  0  0  0
   -1.8459   -1.6563   -0.4195 O   0  0  0  0  0  0  0  0  0  0  0  0
   -0.7142    2.3357    2.1367 O   0  0  0  0  0  0  0  0  0  0  0  0
   -5.0100    0.3339    2.5955 O   0  0  0  0  0  0  0  0  0  0  0  0
   -0.3520   -2.6465   -1.8793 O   0  0  0  0  0  0  0  0  0  0  0  0
    4.8076   -0.9465   -2.9718 O   0  0  0  0  0  0  0  0  0  0  0  0
    5.4529    1.3178   -1.5219 O   0  0  0  0  0  0  0  0  0  0  0  0
    0.3623   -0.7190   -0.7261 C   0  0  0  0  0  0  0  0  0  0  0  0
    0.0239    0.2518    0.1821 C   0  0  0  0  0  0  0  0  0  0  0  0
    1.6926   -0.4305   -1.1232 C   0  0  0  0  0  0  0  0  0  0  0  0
   -1.2376    0.3621    0.8559 C   0  0  0  0  0  0  0  0  0  0  0  0
    2.0567    0.7139   -0.4086 C   0  0  0  0  0  0  0  0  0  0  0  0
   -2.1731   -0.6311    0.5254 C   0  0  0  0  0  0  0  0  0  0  0  0
   -0.5890   -1.7500   -1.0783 C   0  0  0  0  0  0  0  0  0  0  0  0
   -1.5787    1.3475    1.7769 C   0  0  0  0  0  0  0  0  0  0  0  0
    2.6342   -0.9981   -2.0004 C   0  0  0  0  0  0  0  0  0  0  0  0
    3.3018    1.3328   -0.5100 C   0  0  0  0  0  0  0  0  0  0  0  0
   -3.4404   -0.6569    1.0972 C   0  0  0  0  0  0  0  0  0  0  0  0
    3.8939   -0.3955   -2.1207 C   0  0  0  0  0  0  0  0  0  0  0  0
   -2.8509    1.3298    2.3570 C   0  0  0  0  0  0  0  0  0  0  0  0
   -3.7758    0.3338    2.0193 C   0  0  0  0  0  0  0  0  0  0  0  0
    4.2191    0.7484   -1.3880 C   0  0  0  0  0  0  0  0  0  0  0  0
   -5.9057   -0.7070    2.2097 C   0  0  0  0  0  0  0  0  0  0  0  0
  1  9  1  0
  1 12  1  0
  2 13  1  0
  2 14  1  0
  3 15  1  0
  4 21  1  0
  4 23  1  0
  5 14  2  0
  6 19  1  0
  7 22  1  0
  8  9  2  0
  8 10  1  0
  8 14  1  0
  9 11  1  0
 10 12  1  0
 10 16  2  0
 11 13  1  0
 11 15  2  0
 12 17  2  0
 13 18  2  0
 15 20  1  0
 16 19  1  0
 17 22  1  0
 18 21  1  0
 19 22  2  0
 20 21  2  0
M  END
>  <KEY>
WEDELOLACTONE

>  <NAME>
Wedelolactone

>  <SOURCE>
pubchem-3d:5281813

>  <SMILES>
COc1cc(O)c2c(c1)oc(=O)c1c3cc(O)c(O)cc3oc21

>  <FORMULA>
C16H10O7

>  <MW>
314.25

>  <HEAVY_ATOMS>
23

>  <ROTATABLE_BONDS>
1

$$$$
