WITHAFERIN_A
     RDKit          3D

 34 39  0  0  1  0  0  0  0  0999 V2000
    4.8515    1.8149    0.6365 O   0  0  0  0  0  0  0  0  0  0  0  0
    7.3874    0.8903    0.5525 O   0  0  0  0  0  0  0  0  0  0  0  0
    4.1286   -2.7992   -0.8664 O   0  0  0  0  0  0  0  0  0  0  0  0
   -5.0719   -0.2089    1.3283 O   0  0  0  0  0  0  0  0  0  0  0  0
   -7.2912   -0.3096    1.7116 O   0  0  0  0  0  0  0  0  0  0  0  0
   -8.7687   -0.7773   -1.0966 O   0  0  0  0  0  0  0  0  0  0  0  0
    2.2022    0.9968    0.0988 C   0  0  2  0  0  0  0  0  0  0  0  0
    5.1071    0.6782   -0.2282 C   0  0  1  0  0  0  0  0  0  0  0  0
    2.7589   -0.4510   -0.0867 C   0  0  1  0  0  0  0  0  0  0  0  0
    4.3268   -0.5887    0.1744 C   0  0  2  0  0  0  0  0  0  0  0  0
    0.6926    1.0051   -0.1838 C   0  0  1  0  0  0  0  0  0  0  0  0
   -0.1104    0.0673    0.7375 C   0  0  1  0  0  0  0  0  0  0  0  0
    4.3867    1.9225   -0.7036 C   0  0  1  0  0  0  0  0  0  0  0  0
    2.9132    1.9644   -0.8507 C   0  0  0  0  0  0  0  0  0  0  0  0
   -1.5372    0.3637    0.2149 C   0  0  2  0  0  0  0  0  0  0  0  0
    1.8989   -1.4766    0.7206 C   0  0  0  0  0  0  0  0  0  0  0  0
    0.3849   -1.3600    0.4784 C   0  0  0  0  0  0  0  0  0  0  0  0
   -0.0710    2.3247   -0.1034 C   0  0  0  0  0  0  0  0  0  0  0  0
   -1.5452    1.8989    0.0288 C   0  0  0  0  0  0  0  0  0  0  0  0
    6.5755    0.5542   -0.5757 C   0  0  2  0  0  0  0  0  0  0  0  0
    4.6340   -0.9173    1.6524 C   0  0  0  0  0  0  0  0  0  0  0  0
    4.8248   -1.8049   -0.6548 C   0  0  0  0  0  0  0  0  0  0  0  0
    0.0117    0.4063    2.2443 C   0  0  0  0  0  0  0  0  0  0  0  0
   -2.6930   -0.1358    1.0699 C   0  0  1  0  0  0  0  0  0  0  0  0
    7.0054   -0.7709   -1.1036 C   0  0  0  0  0  0  0  0  0  0  0  0
    6.2151   -1.8419   -1.1638 C   0  0  0  0  0  0  0  0  0  0  0  0
   -4.0286    0.2593    0.4559 C   0  0  1  0  0  0  0  0  0  0  0  0
   -2.6176   -1.6521    1.2507 C   0  0  0  0  0  0  0  0  0  0  0  0
   -4.2083   -0.3470   -0.9245 C   0  0  0  0  0  0  0  0  0  0  0  0
   -5.6037   -0.0646   -1.4093 C   0  0  0  0  0  0  0  0  0  0  0  0
   -6.3665   -0.1515    0.9203 C   0  0  0  0  0  0  0  0  0  0  0  0
   -6.6172    0.0823   -0.5325 C   0  0  0  0  0  0  0  0  0  0  0  0
   -5.7363    0.0124   -2.9050 C   0  0  0  0  0  0  0  0  0  0  0  0
   -8.0381    0.4158   -0.8871 C   0  0  0  0  0  0  0  0  0  0  0  0
  8  1  1  1
  1 13  1  0
 20  2  1  1
  3 22  2  0
  4 27  1  0
  4 31  1  0
  5 31  2  0
  6 34  1  0
  7  9  1  0
  7 11  1  0
  7 14  1  6
  8 10  1  0
  8 13  1  0
  8 20  1  0
  9 10  1  0
  9 16  1  1
 10 21  1  1
 10 22  1  0
 11 12  1  0
 11 18  1  1
 12 15  1  0
 12 17  1  0
 12 23  1  1
 13 14  1  1
 15 19  1  1
 15 24  1  0
 16 17  1  0
 18 19  1  0
 20 25  1  0
 22 26  1  0
 24 27  1  0
 24 28  1  6
 25 26  2  0
 27 29  1  6
 29 30  1  0
 30 32  2  0
 30 33  1  0
 31 32  1  0
 32 34  1  0
M  END
>  <KEY>
WITHAFERIN_A

>  <NAME>
Withaferin A

>  <SOURCE>
pubchem-3d:265237

>  <SMILES>
CC1=C(CO)C(=O)O[C@@H]([C@@H](C)[C@H]2CC[C@H]3[C@@H]4C[C@H]5O[C@]56[C@@H](O)C=CC(=O)[C@]6(C)[C@H]4CC[C@]23C)C1

>  <FORMULA>
C28H38O6

>  <MW>
470.61

>  <HEAVY_ATOMS>
34

>  <ROTATABLE_BONDS>
3

$$$$
