WOGONIN
     RDKit          3D

 21 23  0  0  0  0  0  0  0  0999 V2000
    0.3197   -0.5191    0.1148 O   0  0  0  0  0  0  0  0  0  0  0  0
   -1.3981   -2.5989    0.3795 O   0  0  0  0  0  0  0  0  0  0  0  0
   -3.4694    2.4892   -0.1821 O   0  0  0  0  0  0  0  0  0  0  0  0
   -4.1315   -2.1751    0.3674 O   0  0  0  0  0  0  0  0  0  0  0  0
   -0.9831    3.3180   -0.3077 O   0  0  0  0  0  0  0  0  0  0  0  0
   -1.5390    1.0368   -0.0407 C   0  0  0  0  0  0  0  0  0  0  0  0
   -1.0257   -0.2512    0.1015 C   0  0  0  0  0  0  0  0  0  0  0  0
    1.2052    0.5385   -0.0272 C   0  0  0  0  0  0  0  0  0  0  0  0
   -1.8922   -1.3358    0.2395 C   0  0  0  0  0  0  0  0  0  0  0  0
   -0.6027    2.1622   -0.1824 C   0  0  0  0  0  0  0  0  0  0  0  0
   -2.9192    1.2506   -0.0465 C   0  0  0  0  0  0  0  0  0  0  0  0
    0.8343    1.8215   -0.1644 C   0  0  0  0  0  0  0  0  0  0  0  0
    2.6266    0.1397    0.0069 C   0  0  0  0  0  0  0  0  0  0  0  0
   -3.2715   -1.1265    0.2340 C   0  0  0  0  0  0  0  0  0  0  0  0
   -3.7837    0.1639    0.0912 C   0  0  0  0  0  0  0  0  0  0  0  0
    3.5898    1.0163    0.5128 C   0  0  0  0  0  0  0  0  0  0  0  0
    3.0149   -1.1163   -0.4660 C   0  0  0  0  0  0  0  0  0  0  0  0
    4.9324    0.6395    0.5456 C   0  0  0  0  0  0  0  0  0  0  0  0
    4.3576   -1.4933   -0.4331 C   0  0  0  0  0  0  0  0  0  0  0  0
    5.3162   -0.6154    0.0726 C   0  0  0  0  0  0  0  0  0  0  0  0
   -1.1808   -3.3448   -0.8159 C   0  0  0  0  0  0  0  0  0  0  0  0
  1  7  1  0
  1  8  1  0
  2  9  1  0
  2 21  1  0
  3 11  1  0
  4 14  1  0
  5 10  2  0
  6  7  1  0
  6 10  1  0
  6 11  2  0
  7  9  2  0
  8 12  2  0
  8 13  1  0
  9 14  1  0
 10 12  1  0
 11 15  1  0
 13 16  2  0
 13 17  1  0
 14 15  2  0
 16 18  1  0
 17 19  2  0
 18 20  2  0
 19 20  1  0
M  END
>  <KEY>
WOGONIN

>  <NAME>
Wogonin

>  <SOURCE>
pubchem-3d:5281703

>  <SMILES>
COc1c(O)cc(O)c2c(=O)cc(-c3ccccc3)oc12

>  <FORMULA>
C16H12O5

>  <MW>
284.27

>  <HEAVY_ATOMS>
21

>  <ROTATABLE_BONDS>
2

$$$$
