XANTHOHUMOL
     RDKit          3D

 26 27  0  0  0  0  0  0  0  0999 V2000
    0.6769   -3.2654    0.9171 O   0  0  0  0  0  0  0  0  0  0  0  0
    1.6149    0.6946   -1.6118 O   0  0  0  0  0  0  0  0  0  0  0  0
    4.8499   -1.0502    1.4540 O   0  0  0  0  0  0  0  0  0  0  0  0
   -0.3346   -1.9854   -2.0603 O   0  0  0  0  0  0  0  0  0  0  0  0
   -7.1071    1.8059    1.2051 O   0  0  0  0  0  0  0  0  0  0  0  0
    3.2353   -0.1690   -0.0844 C   0  0  0  0  0  0  0  0  0  0  0  0
    4.1752    0.9551   -0.4423 C   0  0  0  0  0  0  0  0  0  0  0  0
    1.9900   -0.2430   -0.6938 C   0  0  0  0  0  0  0  0  0  0  0  0
    1.1224   -1.2832   -0.3609 C   0  0  0  0  0  0  0  0  0  0  0  0
    3.6295   -1.1159    0.8514 C   0  0  0  0  0  0  0  0  0  0  0  0
    1.5084   -2.2398    0.5782 C   0  0  0  0  0  0  0  0  0  0  0  0
    2.7620   -2.1562    1.1843 C   0  0  0  0  0  0  0  0  0  0  0  0
    3.9881    2.1588    0.4377 C   0  0  0  0  0  0  0  0  0  0  0  0
   -0.1883   -1.3725   -0.9946 C   0  0  0  0  0  0  0  0  0  0  0  0
    3.6314    3.4046    0.0709 C   0  0  0  0  0  0  0  0  0  0  0  0
   -1.3476   -0.6782   -0.3415 C   0  0  0  0  0  0  0  0  0  0  0  0
    3.3769    3.7287   -1.3774 C   0  0  0  0  0  0  0  0  0  0  0  0
    3.4611    4.5690    1.0050 C   0  0  0  0  0  0  0  0  0  0  0  0
   -2.5647   -0.7110   -0.9039 C   0  0  0  0  0  0  0  0  0  0  0  0
   -3.7593   -0.0500   -0.3493 C   0  0  0  0  0  0  0  0  0  0  0  0
    0.7800   -4.4628    0.1499 C   0  0  0  0  0  0  0  0  0  0  0  0
   -3.7815    0.2962    0.9919 C   0  0  0  0  0  0  0  0  0  0  0  0
   -4.8360    0.2131   -1.1802 C   0  0  0  0  0  0  0  0  0  0  0  0
   -4.9119    0.9226    1.5168 C   0  0  0  0  0  0  0  0  0  0  0  0
   -5.9664    0.8397   -0.6552 C   0  0  0  0  0  0  0  0  0  0  0  0
   -6.0044    1.1943    0.6933 C   0  0  0  0  0  0  0  0  0  0  0  0
  1 11  1  0
  1 21  1  0
  2  8  1  0
  3 10  1  0
  4 14  2  0
  5 26  1  0
  6  7  1  0
  6  8  2  0
  6 10  1  0
  7 13  1  0
  8  9  1  0
  9 11  2  0
  9 14  1  0
 10 12  2  0
 11 12  1  0
 13 15  2  3
 14 16  1  0
 15 17  1  0
 15 18  1  0
 16 19  2  0
 19 20  1  0
 20 22  1  0
 20 23  2  0
 22 24  2  0
 23 25  1  0
 24 26  1  0
 25 26  2  0
M  END
>  <KEY>
XANTHOHUMOL

>  <NAME>
Xanthohumol

>  <SOURCE>
pubchem-3d:639665

>  <SMILES>
COc1cc(O)c(CC=C(C)C)c(O)c1C(=O)/C=C/c1ccc(O)cc1

>  <FORMULA>
C21H22O5

>  <MW>
354.40

>  <HEAVY_ATOMS>
26

>  <ROTATABLE_BONDS>
6

$$$$
