ZERUMBONE
     RDKit          3D

 16 16  0  0  0  0  0  0  0  0999 V2000
   -1.7516   -3.1429   -0.1421 O   0  0  0  0  0  0  0  0  0  0  0  0
    2.3514   -0.5050    0.0581 C   0  0  0  0  0  0  0  0  0  0  0  0
    2.3070    1.0566    0.2208 C   0  0  0  0  0  0  0  0  0  0  0  0
    3.3290   -1.0819    1.0989 C   0  0  0  0  0  0  0  0  0  0  0  0
    2.8832   -0.8625   -1.3458 C   0  0  0  0  0  0  0  0  0  0  0  0
    0.9596   -1.0640    0.3414 C   0  0  0  0  0  0  0  0  0  0  0  0
    1.1454    1.7008   -0.5033 C   0  0  0  0  0  0  0  0  0  0  0  0
    0.0590    2.2849    0.0461 C   0  0  0  0  0  0  0  0  0  0  0  0
   -1.1415    2.6178   -0.8278 C   0  0  0  0  0  0  0  0  0  0  0  0
   -2.3263    1.6446   -0.6246 C   0  0  0  0  0  0  0  0  0  0  0  0
    0.2155   -1.8488   -0.4547 C   0  0  0  0  0  0  0  0  0  0  0  0
   -0.1224    2.5682    1.5117 C   0  0  0  0  0  0  0  0  0  0  0  0
   -1.8886    0.2105   -0.7721 C   0  0  0  0  0  0  0  0  0  0  0  0
   -2.0102   -0.7816    0.1303 C   0  0  0  0  0  0  0  0  0  0  0  0
   -1.2327   -2.0338   -0.1496 C   0  0  0  0  0  0  0  0  0  0  0  0
   -2.7767   -0.7626    1.4126 C   0  0  0  0  0  0  0  0  0  0  0  0
  1 15  2  0
  2  3  1  0
  2  4  1  0
  2  5  1  0
  2  6  1  0
  3  7  1  0
  6 11  2  0
  7  8  2  0
  8  9  1  0
  8 12  1  0
  9 10  1  0
 10 13  1  0
 11 15  1  0
 13 14  2  0
 14 15  1  0
 14 16  1  0
M  END
>  <KEY>
ZERUMBONE

>  <NAME>
Zerumbone

>  <SOURCE>
pubchem-3d:5470187

>  <SMILES>
C/C1=C\CC(C)(C)/C=C/C(=O)/C(C)=C/CC1

>  <FORMULA>
C15H22O

>  <MW>
218.34

>  <HEAVY_ATOMS>
16

>  <ROTATABLE_BONDS>
0

$$$$
